Geom Title=Bvr.Cr.+Bridge - P/W: New Le, Lc
Program Version=4.10
Viewing Rectangle=-0.0381 , 0.9173 , 1.0901 ,-0.172 

River Reach=Beaver Creek    ,Kentwood        
Reach XY= 5 
       0.1176471       0.9344262       0.2729848       0.7909412
        0.379195       0.5976184       0.6805355       0.2234452
       0.8465474       0.0901639
Rch Text X Y=0.0519475,0.6422872
Reverse River Text= 0 

Type RM Length L Ch R = 1 ,5.99    ,440,600,400
BEGIN DESCRIPTION:
Upstream Boundary Cross Section
END DESCRIPTION:
XS GIS Cut Line=5
0.24999490028474 1.07770670246570.123629745878360.94090304741025
       0.1176471       0.93442620.111664454121640.92794935258975
-0.02870884673160.77598039628104
Node Last Edited Time=Apr/06/2015 19:08:51
#Sta/Elev= 35 
       0     221       7   220.3      36   216.6     131   216.6     233   216.8
     282   216.6     351   216.4     518   216.1     591   213.3     627   213.2
     692     209     709   212.7     719   209.4     738   204.9     751   210.8
     771   212.8     797   213.7     820   211.6     866   214.8     879     214
     899   210.2     932   209.9     948   216.6    1011   218.1    1063   218.7
    1093   219.1    1198   218.5    1283   218.2    1542   218.4    1565   218.1
    1772   218.1    1791   218.4    1831   218.9    1887   220.4    1910   220.8
#Mann= 3 ,-1 , 0 
       0     .15       0     866      .1       0     948     .16       0
Levee=-1,866,214.8,0,,,,
Bank Sta=866,948
XS Rating Curve= 0 ,0
Exp/Cntr=0.3,0.1

Type RM Length L Ch R = 1 ,5.875*  ,440,600,400
BEGIN DESCRIPTION:
River Mile 5.875
END DESCRIPTION:
XS GIS Cut Line=5
0.316928028113270.94860107581743 0.22260802673570.85789382389872
0.21243023283288 0.84687528470690.202252438930050.83585674551508
0.022852564051740.67854946098334
Node Last Edited Time=Apr/15/1997 12:08:42
#Sta/Elev= 73 
       0  219.85     4.9  219.45    25.3  217.38    27.7  217.35    67.6   216.5
      92  216.07   147.4  215.18   163.7  215.18   198.1  215.05   246.6   214.9
     364  214.64   415.3  213.19   440.6  213.11   454.2  212.47   486.2  211.15
   498.2  213.05   505.2  211.43   518.6  209.24   527.7  212.23   541.7   213.3
     560  213.83   576.2  212.85   608.5   214.6   622.1  213.56     643  210.68
   645.9  210.54   659.3  208.23   677.5  207.45   690.5  211.42   697.8  211.66
   705.1  211.31   714.7  212.67   744.1  214.11     748  214.65   820.7  215.82
   852.2  216.16   880.6   216.3   886.6  216.33   895.4  216.39   906.9  216.45
   915.2   216.5   930.7  216.46   962.5  216.38   982.8  216.33   999.6  216.29
  1036.3  216.31    1064  216.36  1098.4   216.1  1121.4  215.87  1130.2  213.71
  1134.4  213.79    1139   213.9  1173.4  214.21  1216.7  216.63  1234.3  213.88
  1234.3  214.28  1260.8  214.29  1269.7  214.25  1358.8  215.08  1367.6  215.18
  1433.1  213.84    1440  213.66  1459.6  215.25  1466.5  215.85  1535.3   216.3
  1555.6  216.05  1575.9  216.15  1698.3  217.24  1720.3  217.58  1744.5  217.93
  1766.4  218.21    1831  219.45  1857.5  219.85
#Mann= 4 , 1 , 0 
       0      .1       0     364     .12       0   608.5     .04       0
     748     .14       0
Bank Sta=608.5,748
XS Rating Curve= 0 ,0
Exp/Cntr=0.3,0.1

Type RM Length L Ch R = 1 ,5.76    ,225,400,275
BEGIN DESCRIPTION:
River Mile 5.76
END DESCRIPTION:
XS GIS Cut Line=5
0.377796204906350.800626261521910.31398669670669 0.7603019213222
0.295421415446120.750102285088190.276856134185540.73990264885417
  0.0645088729340.57262581251069
Node Last Edited Time=Apr/15/1997 12:08:42
#Sta/Elev= 43 
       0   218.7      16   218.1      39   216.4      85   213.6     262     213
     351   214.4     390   210.9     404   206.4     423     205     446   211.7
     459   211.5     472   210.1     489   211.9     541     212     548   212.7
     666   213.9     705   213.9     715   213.9     728   213.9     755   213.9
     791   213.9     814   213.9     833   213.9     906   214.3     945   213.9
     971   213.5     981   209.2     991   209.6    1030   210.2    1079     215
    1099   209.5    1099   210.3    1129   210.3    1139   210.2    1240   211.8
    1250     212    1332     209    1362   213.6    1440   214.5    1463     214
    1486   214.2    1677   217.2    1805   218.9
#Mann= 3 , 1 , 0 
       0      .1       0     351     .04       0     548     .14       0
Levee=0,,,-1,906,214.3,,
Bank Sta=351,548
XS Rating Curve= 0 ,0
Exp/Cntr=0.3,0.1

Type RM Length L Ch R = 1 ,5.685*  ,225,400,275
BEGIN DESCRIPTION:
River Mile 5.685
END DESCRIPTION:
XS GIS Cut Line=5
 0.45714970948080.744704764525430.347537498747080.68058672013438
0.33684125802081 0.67471027996910.326145017294540.66883383980382
0.115459509841710.51176100689803
Node Last Edited Time=Apr/15/1997 12:08:42
#Sta/Elev= 69 
       0   218.6    26.9  218.05    58.3  217.06    65.6  216.78   142.3  214.16
     143  214.14   335.8  212.56   347.9  211.24   359.3  210.63   368.5  212.57
   440.8  212.24   450.3  212.24   515.8  211.95   590.5   211.9   611.9  209.82
   619.6  207.46     630   206.6     630   204.7   643.6  208.09   649.3  208.03
   651.3  208.05     659  207.54   669.1   208.7   691.1  209.29   699.9  210.35
     704   211.2   760.6  211.25   784.3  211.47   797.7  210.59   815.2  210.88
   818.7  210.94   852.2   211.3   852.2  212.45   856.6  212.51   866.4  212.63
     879  212.79   905.2  213.12   940.2  213.57   962.6  213.85   966.5   213.9
   981.1  213.87  1044.8  213.93    1052  213.94  1089.9  213.72  1115.2   213.5
  1124.9  211.34  1134.7  211.53  1172.6  211.81  1182.7  212.31  1220.2  214.18
  1239.7  211.41  1239.7  211.81    1264   211.8  1268.8  211.82  1278.5   211.8
    1366  212.81  1376.7  212.93  1386.5  213.06  1466.2  211.79  1495.3  214.18
  1537.9  214.55  1571.2  214.86  1593.5  214.69  1615.9  214.87    1683  215.64
    1788  216.89  1801.6  217.08  1906.4  218.42    1926   218.7
#Mann= 4 , 1 , 0 
       0     .09       0   368.5      .1       0   590.5     .04       0
     704      .1       0
Bank Sta=590.5,704
XS Rating Curve= 0 ,0
Exp/Cntr=0.3,0.1

Type RM Length L Ch R = 1 ,5.61    ,320,613.3,253.3
BEGIN DESCRIPTION:
River Mile 5.61
END DESCRIPTION:
XS GIS Cut Line=5
0.529425849075210.700161467664530.38103233841516 0.6009692954725
0.378261100595510.599318274850010.375489862775860.59766725422753
0.166646264520290.45088417061875
Node Last Edited Time=Apr/15/1997 12:08:42
#Sta/Elev= 31 
       0   218.5      82   217.4     200   214.7     472   211.9     489   209.3
     505   208.1     518     212     633   211.4     725   210.2     830   209.4
     837   208.2     837   204.4     843   204.5     856   206.6     860   209.7
     915   209.2     938   209.4     951   207.5     968   207.9    1004   208.7
    1004     211    1115   213.9    1191   213.6    1325   213.4    1404   213.3
    1503     214    1670     215    1811     216    1913   216.8    2028   218.2
    2047   218.5
#Mann= 4 , 1 , 0 
       0     .08       0     518      .1       0     830     .04       0
     860     .06       0
Bank Sta=830,860
XS Rating Curve= 0 ,0
Exp/Cntr=0.3,0.1

Type RM Length L Ch R = 1 ,5.49*   ,430,476.7,626.7
BEGIN DESCRIPTION:
River Mile 5.49
END DESCRIPTION:
XS GIS Cut Line=5
0.569153075678880.583577292434230.466684297678590.50122335071985
0.460704932979090.496407867547270.454725568279590.49159238437469
0.240987386812010.33466836669768
Node Last Edited Time=Apr/15/1997 12:08:42
#Sta/Elev= 57 
       0  218.37    12.2  216.63    40.2  214.92    60.4   214.5   147.3  212.29
   164.4  211.95   347.6   212.2   360.2   211.4     372  211.08   381.5  212.43
   387.3  212.45   439.6  209.93   443.3  210.72   466.2  210.62   515.1  210.24
     534  210.02   611.3  209.27   618.6  207.49   635.5  206.63   637.7  205.34
   637.7  204.07   649.4  204.29   658.6  204.69   674.8  207.33   680.3  208.78
   682.7  210.23   730.8  210.43   739.8  210.55   763.7     211   777.2  210.58
   794.9     211   832.2  211.87   832.2  212.64   833.8  212.68   898.6  213.49
   947.5  213.76   969.3  213.67  1026.5  213.55    1040  213.53    1092  213.04
  1162.7  212.53  1165.7  212.53  1239.3   212.5  1247.7  212.59  1316.8  213.52
  1350.6  213.76  1401.3   214.1  1449.4  214.52  1517.1  214.59  1524.1  214.62
  1623.1  215.09  1670.5  215.41  1729.1  215.81  1776.5  216.11  1895.9  217.01
  1912.7  217.15  1915.7   220.7
#Mann= 5 , 1 , 0 
       0    .067       0   164.4    .093       0   381.5      .1       0
   611.3     .04       0   682.7     .06       0
Bank Sta=611.3,682.7
XS Rating Curve= 0 ,0
Exp/Cntr=0.3,0.1

Type RM Length L Ch R = 1 ,5.41    ,100,100,100
BEGIN DESCRIPTION:
Upstream of bridge embankment
END DESCRIPTION:
XS GIS Cut Line=5
0.616873574953080.490551547278510.541503457453650.42985220031208
0.525005776178770.41656578769832 0.50850809490390.40327937508456
0.306305240890870.24189962942861
Node Last Edited Time=Oct/12/2006 16:24:03
#Sta/Elev= 66 
       0  217.55      12  216.05    39.5  214.32    76.4  213.13   161.5  211.17
   180.4  211.04   244.8  211.13   315.2     212     355   212.5     450   213.4
   456.6   212.9   459.8   211.6   466.4   210.1   469.7   209.3   476.2   208.9
   479.5   208.6   486.1   208.7   489.4   207.9   495.9   208.8   499.2   208.6
   505.8   207.8   509.1   207.6   515.6   206.9   518.9   204.3   525.5   203.6
   528.7   203.4   535.3   203.1   538.6   202.9   545.1     203   548.4   202.7
     555   203.1   561.6   204.4   564.8   203.8   571.4     203   574.7   202.9
   581.2   203.6   584.5     204   591.1   204.7   594.4   205.8   600.9   206.5
   604.2   207.5   610.8     208   614.1   208.7   620.6     209   623.9   209.3
   630.5   209.6   633.7   211.3   640.3   212.2   643.6   213.1     647   213.5
     670     212     748     213     814   213.4     886   213.1     958   213.1
    1011   212.3    1083   211.6    1161   211.6    1240   212.9    1326   213.5
    1375     214    1444   213.9    1552   214.3    1660     215    1847     216
    1850   220.5
#Mann= 4 ,-1 , 0 
       0      .3       0   161.5      .3       0     450     .04       0
     647     .25       0
#XS Ineff= 2 , 0 
       0     420   216.7     677       0   216.7
Permanent Ineff=
       F       F
Bank Sta=450,647
XS Rating Curve= 0 ,0
Exp/Cntr=0.5,0.3

Type RM Length L Ch R = 3 ,5.4     ,,,
Node Photo=bcreek.bmp
BEGIN DESCRIPTION:
Bridge # 1
END DESCRIPTION:
Node Last Edited Time=Oct/12/2006 16:05:04
Bridge Culvert--1,-1,-1,-1, 0 
Deck Dist Width WeirC Skew NumUp NumDn MinLoCord MaxHiCord MaxSubmerge Is_Ogee
30,40,2.6,0, 6, 6, , , 0.95, 0, 2,2,,
       0     450     450     647     647    2000
  216.93  216.93  216.93  216.93  216.93  216.93
     200     200   215.7   215.7     200     200
       0     450     450     647     647    2000
  216.93  216.93  216.93  216.93  216.93  216.93
     200     200   215.7   215.7     200     200
Pier Skew, UpSta & Num, DnSta & Num=  ,470, 2 ,470, 2 , 0 , 0 , 0 ,,
    1.25    1.25
     200     216
    1.25    1.25
     200     216
Pier Skew, UpSta & Num, DnSta & Num=  ,490, 2 ,490, 2 , 0 , 0 , 0 ,,
    1.25    1.25
     200     216
    1.25    1.25
     200     216
Pier Skew, UpSta & Num, DnSta & Num=  ,510, 2 ,510, 2 , 0 , 0 , 0 ,,
    1.25    1.25
     200     216
    1.25    1.25
     200     216
Pier Skew, UpSta & Num, DnSta & Num=  ,530, 2 ,530, 2 , 0 , 0 , 0 ,,
    1.25    1.25
     200     216
    1.25    1.25
     200     216
Pier Skew, UpSta & Num, DnSta & Num=  ,550, 2 ,550, 2 , 0 , 0 , 0 ,,
    1.25    1.25
     200     216
    1.25    1.25
     200     216
Pier Skew, UpSta & Num, DnSta & Num=  ,570, 2 ,570, 2 , 0 , 0 , 0 ,,
    1.25    1.25
     200     216
    1.25    1.25
     200     216
Pier Skew, UpSta & Num, DnSta & Num=  ,590, 2 ,590, 2 , 0 , 0 , 0 ,,
    1.25    1.25
     200     216
    1.25    1.25
     200     216
Pier Skew, UpSta & Num, DnSta & Num=  ,610, 2 ,610, 2 , 0 , 0 , 0 ,,
    1.25    1.25
     200     216
    1.25    1.25
     200     216
Pier Skew, UpSta & Num, DnSta & Num=  ,630, 2 ,630, 2 , 0 , 0 , 0 ,,
    1.25    1.25
     200     216
    1.25    1.25
     200     216
BR Coef=-1 ,-1 ,-1 ,1.25, 0 ,,0.34,0.8,0,2,0,
WSPro=,,,, 1 ,,,, 0 ,,,, 0 ,,,,-1 ,-1 ,-1 , 0 , 0 , 0 , 0 , 0 
BC Design=,, 0 ,, 0 ,,,,,,
BC HTab HWMax=220.5
BC Use User HTab Curves=0
BC User HTab FreeFlow(D)= 0 

Type RM Length L Ch R = 1 ,5.39    ,593.3,777.7,853.3
BEGIN DESCRIPTION:
Downstream of bridge embankment
END DESCRIPTION:
XS GIS Cut Line=5
 0.63036231872340.473802632278640.554992201223970.41310328531221
0.538494519949090.399816872698450.521996838674210.38653046008468
0.32667143523788 0.2255471557507
Node Last Edited Time=Oct/12/2006 16:24:14
#Sta/Elev= 63 
       0   216.8      89   213.6     210   211.2     285   210.8     367   211.9
     443   210.8     450   213.4   456.6   212.9   459.8   211.6   466.4   210.1
   469.7   209.3   476.2   208.9   479.5   208.6   486.1   208.7   489.4   207.9
   495.9   208.8   499.2   208.6   505.8   207.8   509.1   207.6   515.6   206.9
   518.9   204.3   525.5   203.6   528.7   203.4   535.3   203.1   538.6   202.9
   545.1     203   548.4   202.7     555   203.1   561.6   204.4   564.8   203.8
   571.4     203   574.7   202.9   581.2   203.6   584.5     204   591.1   204.7
   594.4   205.8   600.9   206.5   604.2   207.5   610.8     208   614.1   208.7
   620.6     209   623.9   209.3   630.5   209.6   633.7   211.3   640.3   212.2
   643.6   213.1     647   213.5     692   211.9     824   212.8     896   213.3
     961   213.2    1040     212    1093   211.7    1116     210    1243   211.1
    1309   210.2    1371   211.5    1421   211.7    1486   213.3    1558   213.7
    1660   214.7    1723   215.4    1824   217.1
#Mann= 5 ,-1 , 0 
       0      .3       0      89      .3       0     450     .04       0
     647     .25       0     824     .25       0
#XS Ineff= 2 , 0 
             420     215     677             215
Permanent Ineff=
       F       F
Bank Sta=450,647
XS Rating Curve= 0 ,0
Exp/Cntr=0.5,0.3

Type RM Length L Ch R = 1 ,5.24*   ,546.7,555.3,546.7
BEGIN DESCRIPTION:
River Mile 5.24
END DESCRIPTION:
XS GIS Cut Line=5
0.681692875022360.300402570507420.648144797766480.27338461632383
0.643396481897420.269560558699880.63864816347268 0.2657364990177
0.411130437424410.04696983957431
Node Last Edited Time=Apr/15/1997 12:08:42
#Sta/Elev= 58 
       0  216.17     6.3  215.31      88   209.3   126.7  208.55   144.6  207.33
   170.7  206.82     177  207.89   200.3  207.83   223.2  206.74   232.8  205.73
     239  204.83     239  202.76     243  201.83   248.2  204.77   248.3  206.08
   249.5  206.71     257   209.2   302.7  208.98   307.9  208.78   318.5  208.52
   337.1  209.08   348.3  209.14   388.4  209.34   392.1  209.39   410.6  209.21
   427.2  208.71     435  208.56   443.4  207.92   449.9  207.82   459.2  207.78
   467.7  208.34   468.5   208.4   519.8  208.05   531.9  207.87   547.7   208.4
   594.3  209.33   602.7  209.52   669.1  210.06   691.2  209.87   760.4  209.23
   778.1  207.91   784.3  207.25   852.8  209.78   931.7  210.79   941.9  210.96
   944.7  211.07   972.7  211.94   994.1  212.48  1012.6  212.79  1030.3  213.55
    1214  213.88  1288.7  214.01    1324  214.07  1455.8  213.95  1514.1  213.99
  1626.1  214.29  1636.1  214.42  1724.7  215.93
#Mann= 5 , 1 , 0 
       0     .06       0   144.6    .073       0   200.3     .04       0
     257    .073       0   994.1     .06       0
Levee=0,,,-1,669,210.06,,
Bank Sta=200.3,257
XS Rating Curve= 0 ,0
Exp/Cntr=0.3,0.1

Type RM Length L Ch R = 1 ,5.13    ,310,355,340
BEGIN DESCRIPTION:
River Mile 5.13
END DESCRIPTION:
XS GIS Cut Line=5
0.752256651369170.216608484420290.731388672641350.19061584480945
0.727484341137430.185752705785490.723580009633520.18088956676152
0.48893107621813-0.0633683469053
Node Last Edited Time=Apr/15/1997 12:08:42
#Sta/Elev= 31 
       0   216.1     155   204.3     187   201.9     197   199.9     203   201.9
     203   205.8     213   208.2     262   208.8     279   207.4     299   208.8
     354   208.9     358     209     404   207.2     413   205.4     420   205.2
     430   205.2     440   207.2     495   205.5     508   204.8     525   206.2
     584   208.8     679   209.3     948     210     951   210.2     981   211.5
    1004   212.1    1240   213.1    1358   213.6    1562   213.1    1693   213.5
    1788     215
#Mann= 4 , 1 , 0 
       0      .1       0     155     .04       0     213      .1       0
    1004     .06       0
Levee=0,,,-1,358,209,,
Bank Sta=155,213
XS Rating Curve= 0 ,0
Exp/Cntr=0.3,0.1

Type RM Length L Ch R = 1 ,5.065*  ,310,355,340
BEGIN DESCRIPTION:
River Mile 5.065
END DESCRIPTION:
XS GIS Cut Line=5
 0.83009814923260.191620526605450.793141632066240.14558840032689
0.787015870568720.13795830289274 0.78089010907120.13032820545859
0.56026730608271-0.1115952564022
Node Last Edited Time=Apr/15/1997 12:08:42
#Sta/Elev= 68 
       0  214.45    11.1  213.86      39  212.26    41.1  211.82   141.4  209.56
   173.5  208.02   274.5  205.05   292.9  203.86   297.1  201.55   299.3  201.33
     307   199.9   312.8  200.76   316.3  202.12   328.9  203.41   328.9  205.36
   365.5   208.6   412.9  208.53   417.3  208.31   429.3  206.24   433.9  205.81
   441.1  203.43   447.3  206.25   448.6  206.36   487.7  208.09   501.8  208.05
   505.7  208.08   550.1  207.01   558.8  206.08   565.6  205.95   566.4  205.95
   575.3  205.82   584.9  206.68   587.1  206.61   624.4  205.92   638.1  205.98
   644.1  205.93   650.7  205.84   667.1  206.76   681.4  207.28   695.9  207.66
   722.8  207.77   724.1  207.78   739.4  207.54   763.2  208.11     787  209.07
     816  209.31   919.6  210.04   970.4  209.81   998.3  209.75  1055.3  209.77
    1076   209.5  1078.9  209.59  1096.7   209.9  1107.9  210.14  1130.1  210.42
  1225.1  210.56  1358.3  211.08  1372.2  211.13  1418.8  211.28  1426.1  210.55
  1442.6  211.38  1472.3  211.49  1646.7  211.48  1669.5  211.47  1745.1  211.67
  1796.2  212.21  1868.3  213.44    1888   214.2
#Mann= 4 , 1 , 0 
       0      .1       0   274.5     .04       0   365.5      .1       0
  1130.1     .08       0
Levee=0,,,-1,365.5,208.6,,
Bank Sta=274.5,365.5
XS Rating Curve= 0 ,0
Exp/Cntr=0.3,0.1

Type RM Length L Ch R = 1 ,5.0     ,0,0,0
BEGIN DESCRIPTION:
Downstream Boundary Cross Section
END DESCRIPTION:
XS GIS Cut Line=5
0.907939647096030.166632568790610.854894591491130.10056095584434
       0.8465474       0.09016390.838200208508870.07976684415566
0.63174629095161-0.1596333076143
Node Last Edited Time=Apr/15/1997 12:08:42
#Sta/Elev= 43 
       0   212.8      16   212.1      56   210.1      59   209.3     203   209.1
     249   207.4     394   205.8     407   205.2     410     201     417   199.9
     427   201.1     433   203.5     518     209     568   208.2     584   203.9
     591   198.6     597   203.8     636   207.3     712   206.7     732   206.1
     768   205.9     787   206.7     823   207.7     837   207.8     863   206.8
     879   206.2     902   207.2     925     209    1053   210.5    1102   209.9
    1129   209.7    1184   209.6    1204     209    1224   208.8    1348   208.6
    1490   209.1    1535   209.2    1542   207.7    1558   209.3    1755   209.8
    1850     210    1969   212.2    1988   213.4
#Mann= 3 , 0 , 0 
       0      .1       0     394     .04       0     518      .1       0
Levee=0,,,-1,518,209,,
Bank Sta=394,518
XS Rating Curve= 0 ,0
Exp/Cntr=0.3,0.1

Storage Area=test            ,-0.2859597,0.3877383
Storage Area Surface Line= 5 
-0.4444583916083 0.4869986013986                
-0.39150314685310.23399020979021                
-0.15320454545450.26635174825175                
-0.15614650349650.53701188811189                
-0.44740034965030.48405664335664                
Storage Area Type= 0 
Storage Area Area=1200
Storage Area Min Elev=
Storage Area Vol Elev= 1 
               0

Chan Stop Cuts=-1 



Use User Specified Reach Order=0
User Specified Reach Order=Beaver Creek    ,Kentwood        
GIS Ratio Cuts To Invert=-1
GIS Limit At Bridges=0
Composite Channel Slope=5
