Geom Title=Bridge Crossing near Johnston Station
Program Version=4.01
Viewing Rectangle= 0.3089 , 0.5375 , 0.9865 , 0.0974 

River Reach=Bogue Chitto    ,Johnston Sta    
Reach XY= 13 
             0.5       0.9342105       0.4652174       0.8853383
       0.4521739        0.843985       0.4594203       0.7988722
       0.4652174       0.7556391       0.4681159       0.7030075
       0.4521739       0.6428571       0.4347826       0.5921053
        0.415942       0.5526316       0.3971014       0.4680451
       0.3985507        0.325188       0.3884058       0.2612782
       0.3797101       0.1109023
Rch Text X Y=0.2130435,0.6466165
Reverse River Text= 0 

Type RM Length L Ch R = 1 ,56.97   ,444,922,437
BEGIN DESCRIPTION:
River mile 56.97
END DESCRIPTION:
XS GIS Cut Line=5
0.51314800497701 0.92485299618570.50074351638739 0.9336813355037
             0.5       0.93421050.49925648361261 0.9347396644963
0.433842602163210.97781271685403
Node Last Edited Time=Apr/15/1997 12:07:36
#Sta/Elev= 93 
       0     352      .1   348.3      52   346.3     141   344.2     367   342.3
     377   342.1     397   342.4     479   342.1     525     343     564   343.2
     630   342.6     659   342.3     679     332     702   329.9     725     332
     738   343.9     807   343.9     906   343.7    1034   343.9    1109   343.7
    1201   342.9    1266     343    1329   342.7    1339   339.3    1355   338.2
    1378   340.2    1388     343    1421   342.7    1457     340    1496   339.1
    1529     342    1542   342.9    1595   343.1    1644   341.4    1660   337.3
    1680   337.6    1690   341.1    1759   343.1    1778   342.5    1831   343.1
    1854   339.2    1873     339    1900     342    1992   342.3    2080   342.8
    2126   343.6    2172     343    2195   340.9    2205   340.9    2228   342.6
    2251   342.7    2310   344.6    2349   343.9    2412   343.5    2421   343.5
    2530   343.1    2618   343.5    2681   344.8    2713   345.5    2723   337.8
    2727   334.4    2746   334.4    2749   337.8    2756   342.2    2772   342.9
    2802   343.1    2835   342.9    2877   343.8    2946   343.4    3009   343.2
    3045   342.5    3107   343.4    3156   343.7    3242   343.5    3258   342.2
    3268   342.1    3281   343.2    3340   342.6    3442   343.6    3534   343.7
    3609   343.5    3681   343.9    3776   343.9    3819   343.9    3931   343.8
    3996   343.8    4039   344.3    4095   343.8    4101   342.7    4111   339.8
    4121   342.7    4127   348.8    4128     352
#Mann= 3 , 0 , 0 
       0     .13       0     659     .05       0     738     .13       0
Bank Sta=659,738
XS Rating Curve= 0 ,0
Exp/Cntr=0.3,0.1

Type RM Length L Ch R = 1 ,56.7955*,444,922,437
BEGIN DESCRIPTION:
Interpolated river station 56.7955
END DESCRIPTION:
XS GIS Cut Line=5
0.504382187412710.904945959585240.488401290883750.91631964711328
0.487648362896520.916855509894350.486895434909290.91739137267541
0.422017310605870.95649707318281
Node Last Edited Time=Apr/15/1997 12:07:36
#Sta/Elev= 166 
       0  351.19      .1   347.9    35.1  346.97      67  345.81    69.5  345.75
    78.8  345.42   105.7  344.95   112.9  344.52   122.2  344.72   131.5  344.58
   181.7  343.66   202.1  343.49   257.7   343.2   308.2  342.84     381  342.41
     400     342   403.2  342.26   416.1  342.28     467  342.07   472.8  342.04
   485.7  341.88   511.5  342.18   550.5  342.13   605.7  341.97   616.1  341.32
   617.1  341.34   646.9  342.21   672.7  342.57   676.4   342.6   720.7  342.43
   726.6  342.64   731.5  342.76   773.7  342.52   811.6  342.25   826.8  342.14
     849  341.37   860.8  334.96   867.3  331.58   888.3  329.29   914.3  331.26
   917.5  333.59   920.7  336.29     929   343.6   948.2  343.57   995.7  343.55
  1019.6   343.5  1091.5  343.07  1155.5   342.9  1204.9  342.94  1215.3  343.03
  1285.8  343.35  1287.8  343.34  1376.8  342.63  1434.1   342.7  1439.7  342.71
  1500.6  342.46  1510.3  339.44  1525.8  338.47    1548  340.25  1557.7  342.75
  1589.6  342.49  1624.4   340.1  1627.6  340.03  1662.1  339.26    1694   341.8
  1706.6  342.58  1726.4  342.62  1757.9  342.66  1793.6  341.43  1805.3  341.07
  1820.8  337.44  1840.1  337.73  1849.8  340.85  1880.1  341.69  1916.5  342.63
  1934.9  342.08  1974.8  342.47  1986.1  342.35  2008.4  338.41  2018.7  338.09
  2024.2  338.48  2026.8  338.88  2028.3  339.29  2042.1  340.74  2052.9  341.82
  2105.2  341.86  2141.9  341.96  2190.3   342.2    2227  342.36  2239.7  342.55
  2271.5  343.09    2316  342.61  2330.3  341.42  2338.2  340.72  2347.9  340.68
  2370.1   342.1  2392.4  342.09  2442.8  343.37  2449.4  343.72  2456.5  343.77
  2487.1  343.26  2496.3   343.2  2548.1  342.99  2556.8  343.01  2577.3  342.98
  2600.6  342.94  2645.9  342.68  2662.2  342.58  2726.9   342.7  2747.3  342.83
  2808.3  344.09  2839.2  344.77  2848.9  337.94  2852.7  334.93  2871.1  334.96
    2874  337.99  2880.8  341.91  2896.3  342.56  2910.8  342.68  2925.3  342.46
  2934.1  342.22  2957.2   342.2  2997.8  343.19  3001.4  343.19  3064.6  342.89
  3068.6  342.88  3125.5  342.66  3160.3  342.01    3199  342.49  3220.3  342.86
  3252.6  343.16  3267.7  343.25  3350.8  343.11  3366.3  341.96  3374.7  341.89
    3376  341.88  3388.6  342.84  3445.6  342.24  3447.4  342.25  3509.2  342.83
  3544.3   343.2  3595.7  343.33  3633.3  343.35  3690.4  343.19  3705.8  343.03
  3721.9  342.98  3743.9  343.36  3775.4  343.49  3811.1  343.44  3867.3  343.43
  3908.9  343.42    3910  343.42  4000.5  343.41  4017.2  343.42  4080.1  343.47
  4099.4  343.69    4109  343.82  4121.7  344.01  4154.3  343.89  4172.1  343.91
  4175.9  343.92  4181.7  343.01  4191.3  340.54    4201  343.23  4206.8  348.72
  4207.8  351.58
#Mann= 3 , 0 , 0 
       0    .127       0     849     .05       0     929     .13       0
Bank Sta=849,929
XS Rating Curve= 0 ,0
Exp/Cntr=0.3,0.1

Type RM Length L Ch R = 1 ,56.6211*,444,922,437
BEGIN DESCRIPTION:
Interpolated river station 56.6211
END DESCRIPTION:
XS GIS Cut Line=5
0.496193111742380.88588707921819 0.47605906538010.89895795872287
0.475296725793030.899500519788690.474534386205960.90004308085452
0.409051466436390.93271997961852
Node Last Edited Time=Apr/15/1997 12:07:36
#Sta/Elev= 166 
       0  350.38      .2   347.5      43  346.69      82  345.33    85.1  345.24
    96.5  344.75   129.4   344.3   138.2  343.58   149.6  344.16     161  344.05
   222.3  343.11   247.4  342.92   315.3   342.7   377.2  342.31   466.2  341.92
   489.5  341.23   493.4  341.76   509.2   341.9   571.5   341.8   578.6  341.78
   594.4  341.66   625.9  341.96   673.7  341.98   741.2  341.81   753.9  340.55
   755.2  340.58   791.6  341.87   823.2   342.2   827.7  342.19     882  341.69
   889.2  342.08   895.1  342.35   946.9  342.16   993.3  341.91  1011.8  341.79
    1039  340.43  1049.7  334.27  1055.6  331.16  1074.7  328.68  1103.6  330.53
  1107.2  332.58  1110.7  335.44    1120   343.3  1138.6  343.23  1184.5   343.2
  1207.5  343.15    1277  342.45  1338.8     342  1386.5     342  1396.6  342.16
  1464.7  342.99  1466.7  342.99  1552.6  342.35  1607.9  342.42  1613.4  342.43
  1672.2  342.23  1681.6  339.59  1696.5  338.74    1718  340.31  1727.3  342.49
  1758.2  342.28  1791.8   340.2  1794.9  340.14  1828.3  339.41  1859.1  341.59
  1871.2  342.26  1890.3  342.27  1920.8  342.21  1955.3  341.04  1966.6  340.74
  1981.5  337.58  2000.2  337.85  2009.5  340.59  2038.8  341.36    2074  342.16
  2091.8  341.67  2130.3  341.97  2141.3   341.6  2162.8  337.62  2172.8  337.09
  2178.1  337.93  2180.5  338.75    2182  339.41  2195.3  340.72  2205.8  341.64
  2256.3  341.54  2291.7  341.61  2338.5  341.81  2373.9  341.91  2386.2  342.07
  2416.9  342.58  2459.9  342.21  2473.7  341.19  2481.4  340.54  2490.7  340.46
  2512.2   341.6  2533.7  341.48  2582.5  342.36  2588.8  342.84  2595.7  343.08
  2625.3  342.62  2634.2  342.56  2684.2  342.48  2692.6  342.52  2712.4  342.53
  2734.9  342.55  2778.7  342.19  2794.4  342.07  2856.9     342  2876.6  342.15
  2935.5  343.38  2965.4  344.04  2974.7  338.09  2978.5  335.46  2996.2  335.52
    2999  338.18  3005.6  341.62  3020.5  342.23  3034.6  342.36  3048.6  341.81
  3057.1  341.39  3079.4   341.5  3118.6  342.59  3122.1  342.61  3183.1  342.37
  3187.1  342.37    3242  342.13  3275.6  341.52    3313  341.91  3333.6  342.31
  3364.7  342.71  3379.3   342.8  3459.7  342.72  3474.6  341.73  3482.7  341.67
    3484  341.65  3496.1  342.48  3551.3  341.87    3553  341.88  3612.7  342.41
  3646.6   342.8  3696.2     343  3732.5  343.01  3787.7  342.84  3802.6  342.56
  3818.2  342.37  3839.4     343  3869.9  343.07  3904.4  342.99  3958.7  342.96
  3998.8  342.94  3999.8  342.94  4087.3  343.01  4103.5  343.03  4164.2  343.14
  4182.8  343.36  4192.1  343.49  4204.4  343.72  4235.8  343.78  4253.1  343.98
  4256.7  344.04  4262.3  343.32  4271.7  341.29    4281  343.77  4286.6  348.64
  4287.6  351.16
#Mann= 3 , 0 , 0 
       0    .123       0    1039     .05       0    1120     .13       0
Bank Sta=1039,1120
XS Rating Curve= 0 ,0
Exp/Cntr=0.3,0.1

Type RM Length L Ch R = 1 ,56.4466*,444,922,437
BEGIN DESCRIPTION:
Interpolated river station 56.4466
END DESCRIPTION:
XS GIS Cut Line=5
 0.49062868050520.869214906012180.464941967416430.88131603650675
0.464038587860130.881600977037320.463135208303820.88188591756788
0.396907658882120.90637964058643
Node Last Edited Time=Apr/15/1997 12:07:36
#Sta/Elev= 166 
       0  349.57      .2   347.1    50.8   346.4      97  344.84   100.6  344.74
   114.1  344.09     153  343.66   163.4  342.64   176.9  343.59   190.4  343.51
     263  342.57   292.6  342.34     373   342.2   446.2  341.78   551.5  341.43
     579  340.45   583.6  341.27   602.3  341.51     676  341.53   684.4  341.52
   703.1  341.44   740.4  341.74   796.9  341.83   876.7  341.65   891.8  339.77
   893.3  339.82   936.4  341.53   973.8  341.83   979.1  341.79  1043.3  340.95
  1051.8  341.52  1058.8  341.94  1120.1  341.81  1174.9  341.56  1196.8  341.45
    1229   339.5  1238.6  333.57  1243.9  330.74    1261  328.07  1292.9  329.79
  1296.9  331.57  1300.7  334.59    1311     343  1328.9   342.9  1373.2  342.86
  1395.4   342.8  1462.5  341.82  1522.1   341.1  1568.1  341.06  1577.9  341.29
  1643.6  342.64  1645.5  342.63  1728.4  342.08  1781.8  342.13    1787  342.14
  1843.8  341.99  1852.8  339.73  1867.3  339.01    1888  340.36    1897  342.24
  1926.8  342.07  1959.2   340.3  1962.2  340.25  1994.4  339.57  2024.1  341.39
  2035.9  341.94  2054.3  341.92  2083.6  341.77    2117  340.64  2127.8   340.4
  2142.3  337.72  2160.3  337.98  2169.3  340.34  2197.6  341.04  2231.5  341.69
  2248.6  341.25  2285.9  341.48  2296.4  340.84  2317.2  336.83  2326.8  336.09
  2331.9  337.39  2334.3  338.63  2335.7  339.52  2348.5   340.7  2358.6  341.46
  2407.4  341.22  2441.6  341.27  2486.7  341.42  2520.9  341.47  2532.8  341.59
  2562.4  342.07  2603.9  341.82  2617.2  340.97  2624.6  340.37  2633.6  340.24
  2654.3  341.09  2675.1  340.88  2722.1  341.35  2728.3  341.97  2734.9  342.38
  2763.4  341.97    2772  341.93  2820.2  341.98  2828.3  342.02  2847.5  342.08
  2869.2  342.16  2911.4  341.71  2926.6  341.55  2986.9   341.3    3006  341.48
  3062.8  342.68  3091.6  343.31  3100.6  338.23  3104.2  335.98  3121.4  336.08
  3124.1  338.37  3130.4  341.34  3144.8  341.89  3158.4  342.03  3171.8  341.17
  3180.1  340.56  3201.6   340.8  3239.5  341.98  3242.8  342.02  3301.7  341.86
  3305.5  341.86  3358.5  341.59  3390.9  341.03    3427  341.32  3446.8  341.77
  3476.9  342.27    3491  342.35  3568.5  342.33    3583  341.49  3590.8  341.44
    3592  341.43  3603.7  342.12  3656.9  341.51  3658.6  341.51  3716.2     342
  3748.9   342.4  3796.7  342.67  3831.8  342.66    3885   342.5  3899.4  342.09
  3914.4  341.76  3934.9  342.65  3964.3  342.66  3997.6  342.53    4050   342.5
  4088.7  342.47  4089.7  342.47  4174.2  342.61  4189.7  342.65  4248.3  342.81
  4266.3  343.02  4275.2  343.16  4287.1  343.44  4317.4  343.67  4334.1  344.06
  4337.6  344.16    4343  343.63    4352  342.03    4361   344.3  4366.4  348.57
  4367.3  350.73
#Mann= 3 , 0 , 0 
       0     .12       0    1229     .05       0    1311     .13       0
Bank Sta=1229,1311
XS Rating Curve= 0 ,0
Exp/Cntr=0.3,0.1

Type RM Length L Ch R = 1 ,56.2722*,444,922,437
BEGIN DESCRIPTION:
Interpolated river station 56.2722
END DESCRIPTION:
XS GIS Cut Line=5
0.490396767015690.853233240944410.458545297187080.86099753842925
0.457630900806910.861285953844330.456716504426750.86157436925942
0.39054561057966  0.877424378464
Node Last Edited Time=Apr/15/1997 12:07:36
#Sta/Elev= 166 
       0  348.76      .2   346.7    58.7  346.12     112  344.35   116.2  344.23
   131.8  343.42   176.7  343.02   188.7   341.7   204.3  343.03   219.8  342.98
   303.6  342.02   337.8  341.77   430.7   341.7   515.1  341.25   636.7  340.94
   668.5  339.68   673.9  340.77   695.4  341.13   780.5  341.25   790.2  341.26
   811.8  341.22   854.8  341.53     920  341.67  1012.3   341.5  1029.7  338.99
  1031.4  339.06  1081.2   341.2  1124.3  341.46  1130.5  341.38  1204.6  340.21
  1214.4  340.96  1222.5  341.54  1293.2  341.46  1356.6  341.22  1381.9  341.11
    1419  338.57  1427.5  332.88  1432.2  330.32  1447.3  327.46  1482.3  329.06
  1486.6  330.56  1490.8  333.74    1502   342.7  1519.3  342.57  1561.9  342.51
  1583.4  342.45    1648  341.19  1705.4   340.2  1749.8  340.11  1759.2  340.41
  1822.5  342.28  1824.3  342.28  1904.2  341.81  1955.7  341.84  1960.7  341.85
  2015.4  341.75  2024.1  339.88    2038  339.28    2058  340.42  2066.7  341.99
  2095.4  341.86  2126.6   340.4  2129.5  340.36  2160.5  339.73  2189.2  341.18
  2200.5  341.62  2218.2  341.57  2246.5  341.32  2278.7  340.25  2289.1  340.07
    2303  337.86  2320.4   338.1  2329.1  340.09  2356.3  340.72    2389  341.22
  2405.5  340.83  2441.4  340.98  2451.6  340.09  2471.5  336.03  2480.8  335.09
  2485.8  336.84    2488   338.5  2489.5  339.63  2501.8  340.69  2511.5  341.28
  2558.5   340.9  2591.4  340.93  2634.9  341.04  2667.9  341.02  2679.3   341.1
  2707.8  341.56  2747.8  341.43  2760.7  340.74  2767.8  340.19  2776.5  340.02
  2796.5  340.59  2816.4  340.27  2861.8  340.34  2867.7  341.09  2874.1  341.68
  2901.6  341.33  2909.8  341.29  2956.3  341.47  2964.1  341.53  2982.6  341.63
  3003.5  341.76  3044.2  341.22  3058.8  341.04  3116.9   340.6  3135.3   340.8
    3190  341.97  3217.8  342.58  3226.5  338.37    3230  336.51  3246.5  336.65
  3249.1  338.56  3255.2  341.05  3269.1  341.55  3282.1  341.71  3295.1  340.53
  3303.1  339.74  3323.8   340.1  3360.3  341.38  3363.5  341.43  3420.2  341.35
  3423.9  341.35    3475  341.05  3506.2  340.54    3541  340.73  3560.1  341.23
  3589.1  341.82  3602.7  341.91  3677.4  341.95  3691.3  341.25  3698.8  341.22
    3700   341.2  3711.3  341.75  3762.5  341.14  3764.2  341.14  3819.6  341.58
  3851.1  341.99  3897.3  342.34  3931.1  342.31  3982.4  342.15  3996.2  341.62
  4010.7  341.15  4030.4  342.29  4058.8  342.24  4090.8  342.08  4141.3  342.03
  4178.7  341.99  4179.6  341.99    4261  342.21    4276  342.26  4332.4  342.49
  4349.7  342.68  4358.4  342.84  4369.8  343.15    4399  343.56  4415.1  344.13
  4418.4  344.28  4423.7  343.94  4432.3  342.78    4441  344.83  4446.2  348.49
  4447.1  350.31
#Mann= 3 , 0 , 0 
       0    .117       0    1419     .05       0    1502     .13       0
Bank Sta=1419,1502
XS Rating Curve= 0 ,0
Exp/Cntr=0.3,0.1

Type RM Length L Ch R = 1 ,56.0977*,444,922,437
BEGIN DESCRIPTION:
Interpolated river station 56.0977
END DESCRIPTION:
XS GIS Cut Line=5
0.490754828229750.839048549279310.453633206698780.84101844781244
0.452675132492830.840864553819480.451717058286880.84071065982651
0.386637514161540.84788293007152
Node Last Edited Time=Apr/15/1997 12:07:36
#Sta/Elev= 166 
       0  347.94      .2   346.3    66.6  345.83     127  343.87   131.8  343.72
   149.4  342.76   200.4  342.37   213.9  340.76   231.6  342.46   249.3  342.44
   344.3  341.48   383.1   341.2   488.3   341.2   584.1  340.72     722  340.46
     758   338.9   764.1  340.28   788.5  340.74     885  340.98   896.1  341.01
   920.5     341   969.3  341.31  1043.2  341.52  1147.8  341.34  1167.5  338.21
  1169.5  338.29  1225.9  340.86  1274.8  341.09  1281.8  340.98  1365.9  339.47
  1377.1  340.39  1386.2  341.13  1466.4  341.11  1538.2  340.87  1566.9  340.77
    1609  337.63  1616.4  332.18  1620.5   329.9  1633.7  326.84  1671.6  328.32
  1676.3  329.55  1680.8   332.9    1693   342.4  1709.6  342.23  1750.7  342.16
  1771.3   342.1  1833.4  340.56  1888.7   339.3  1931.4  339.17  1940.4  339.54
  2001.4  341.92  2003.1  341.92    2080  341.53  2129.5  341.55  2134.4  341.56
    2187  341.52  2195.4  340.02  2208.8  339.55    2228  340.47  2236.4  341.73
    2264  341.65  2294.1   340.5  2296.8  340.47  2326.7  339.89  2354.2  340.98
  2365.1   341.3  2382.2  341.21  2409.4  340.88  2440.3  339.86  2450.4  339.74
  2463.8  337.99  2480.5  338.23  2488.8  339.83  2515.1  340.39  2546.5  340.75
  2562.4  340.42  2596.9  340.49  2606.7  339.34  2625.9  335.24  2634.9  334.09
  2639.6  336.29  2641.8  338.38  2643.2  339.75    2655  340.67  2664.4   341.1
  2709.6  340.58  2741.3  340.59  2783.1  340.65  2814.9  340.58  2825.8  340.62
  2853.3  341.05  2891.8  341.03  2904.1  340.51    2911  340.01  2919.3   339.8
  2938.6  340.09  2957.8  339.66  3001.4  339.34  3007.1  340.21  3013.3  340.99
  3039.7  340.69  3047.7  340.65  3092.4  340.96  3099.9  341.04  3117.7  341.19
  3137.8  341.37    3177  340.74    3191  340.52    3247   339.9  3264.6  340.13
  3317.3  341.26    3344  341.85  3352.4  338.52  3355.7  337.04  3371.6  337.21
  3374.1  338.74    3380  340.76  3393.3  341.21  3405.9  341.39  3418.4  339.88
  3426.1  338.91    3446   339.4  3481.1  340.77  3484.2  340.85  3538.8  340.83
  3542.3  340.84  3591.5  340.51  3621.5  340.05    3655  340.15  3673.4  340.69
  3701.3  341.38  3714.3  341.46  3786.2  341.56  3799.6  341.01  3806.9  340.99
    3808  340.98  3818.8  341.39  3868.2  340.78  3869.7  340.77  3923.1  341.16
  3953.4  341.59  3997.8  342.01  4030.3  341.97  4079.7   341.8    4093  341.15
    4107  340.54  4125.9  341.93  4153.2  341.83  4184.1  341.62  4232.6  341.56
  4268.6  341.51  4269.5  341.51  4347.8  341.81  4362.2  341.88  4416.5  342.16
  4433.2  342.35  4441.5  342.51  4452.5  342.86  4480.6  343.44    4496   344.2
  4499.3  344.41  4504.3  344.25  4512.7  343.52    4521  345.37  4526.1  348.41
  4526.9  349.89
#Mann= 3 , 0 , 0 
       0    .113       0    1609     .05       0    1693     .13       0
Bank Sta=1609,1693
XS Rating Curve= 0 ,0
Exp/Cntr=0.3,0.1

Type RM Length L Ch R = 1 ,55.9233*,444,922,437
BEGIN DESCRIPTION:
Interpolated river station 55.9233
END DESCRIPTION:
XS GIS Cut Line=5
0.498514605187580.822431999722180.457022951904010.81998826993416
0.456053472052760.81983254386984 0.45508399220150.81967681780553
0.392182642196250.81905266332643
Node Last Edited Time=Apr/15/1997 12:07:36
#Sta/Elev= 166 
       0  347.13      .3   345.9    74.4  345.55     142  343.38   147.3  343.22
   167.1  342.09     224  341.73   239.2  339.82     259   341.9   278.7  341.91
   384.9  340.94   428.3  340.62     546   340.7   653.1  340.19   807.2  339.97
   847.5  338.13   854.3  339.78   881.7  340.36   989.5  340.71  1001.9  340.75
  1029.2  340.78  1083.8  341.09  1166.4  341.36  1283.4  341.18  1305.4  337.43
  1307.6  337.53  1370.7  340.52  1425.4  340.71  1433.2  340.57  1527.1  338.73
  1539.7  339.83  1549.9  340.72  1639.5  340.76  1719.8  340.52  1751.9  340.43
    1799   336.7  1805.3  331.49  1808.8  329.48    1820  326.23  1860.9  327.59
  1865.9  328.54  1870.9  332.05    1884   342.1    1900   341.9  1939.4  341.81
  1959.2  341.75  2018.9  339.94    2072   338.4  2113.1  338.23  2121.7  338.67
  2180.3  341.57    2182  341.57  2255.9  341.26  2303.4  341.26  2308.1  341.28
  2358.7  341.28  2366.7  340.16  2379.5  339.82    2398  340.53    2406  341.48
  2432.5  341.43  2461.5  340.59  2464.1  340.57  2492.8  340.04  2519.3  340.77
  2529.7  340.98  2546.1  340.86  2572.3  340.43    2602  339.47  2611.7  339.41
  2624.5  338.13  2640.6  338.35  2648.6  339.58  2673.8  340.07    2704  340.28
  2719.3     340  2752.4  339.99  2761.8  338.59  2780.3  334.45  2788.9   333.1
  2793.5  335.74  2795.6  338.25  2796.9  339.86  2808.3  340.65  2817.3  340.92
  2860.7  340.26  2891.1  340.24  2931.4  340.26  2961.8  340.14  2972.4  340.14
  2998.8  340.54  3035.7  340.64  3047.6  340.28  3054.2  339.83  3062.2  339.59
  3080.7  339.59  3099.2  339.05  3141.1  338.33  3146.5  339.33  3152.5  340.29
  3177.9  340.05  3185.5  340.01  3228.5  340.45  3235.7  340.55  3252.7  340.74
  3272.1  340.98  3309.7  340.25  3323.2  340.01    3377   339.2  3393.9  339.46
  3444.5  340.55  3470.2  341.12  3478.2  338.66  3481.5  337.57  3496.7  337.77
  3499.1  338.93  3504.7  340.47  3517.6  340.88  3529.7  341.07  3541.7  339.24
  3549.1  338.08  3568.2   338.7  3601.9  340.16  3604.9  340.26  3657.3  340.32
  3660.7  340.33  3707.9  339.98  3736.9  339.56    3769  339.56  3786.7  340.14
  3813.5  340.93    3826  341.01  3895.1  341.17  3907.9  340.78  3914.9  340.77
    3916  340.76  3926.4  341.03  3973.8  340.41  3975.3  340.41  4026.6  340.75
  4055.7  341.19  4098.4  341.69  4129.6  341.62    4177  341.45  4189.8  340.68
  4203.2  339.93  4221.5  341.57  4247.7  341.41  4277.3  341.17    4324  341.09
  4358.5  341.03  4359.4  341.03  4434.6  341.41  4448.4  341.49  4500.7  341.83
  4516.6  342.01  4524.6  342.18  4535.2  342.57  4562.2  343.33    4577  344.28
  4580.2  344.53    4585  344.56    4593  344.26    4601   345.9  4605.9  348.33
  4606.7  349.47
#Mann= 3 , 0 , 0 
       0     .11       0    1799     .05       0    1884     .13       0
Bank Sta=1799,1884
XS Rating Curve= 0 ,0
Exp/Cntr=0.3,0.1

Type RM Length L Ch R = 1 ,55.7488*,444,922,437
BEGIN DESCRIPTION:
Interpolated river station 55.7488
END DESCRIPTION:
XS GIS Cut Line=5
 0.50589526486340.805506094928630.460412932378020.79894413303841
0.459429946507670.798800259127690.458446960637330.79865638521698
0.398308681565410.79381303418698
Node Last Edited Time=Apr/15/1997 12:07:36
#Sta/Elev= 166 
       0  346.32      .3   345.5    82.3  345.27   156.9  342.89   162.9  342.71
   184.7  341.43   247.7  341.09   264.5  338.88   286.3  341.33   308.1  341.37
   425.6  340.39   473.5  340.05   603.7   340.2   722.1  339.66   892.5  339.48
     937  337.35   944.5  339.29   974.8  339.97    1094  340.44  1107.7  340.49
  1137.9  340.56  1198.2  340.87  1289.6  341.21  1418.9  341.02  1443.3  336.66
  1445.7  336.77  1515.5  340.18  1575.9  340.34  1584.6  340.17  1688.4  337.98
  1702.3  339.27  1713.6  340.31  1812.7   340.4  1901.5  340.18  1936.9  340.08
    1989  335.77  1994.2  330.79  1997.1  329.06  2006.3  325.62  2050.2  326.85
  2055.6  327.52  2060.9   331.2    2075   341.8  2090.3  341.57  2128.2  341.46
  2147.1   341.4  2204.4  339.31  2255.4   337.5  2294.7  337.29    2303   337.8
  2359.2  341.21  2360.8  341.21  2431.7  340.99  2477.3  340.98  2481.7  340.99
  2530.3  341.04    2538  340.31  2550.3   340.1    2568  340.58  2575.7  341.23
  2601.1  341.22  2628.9  340.69  2631.4  340.68  2658.9   340.2  2684.3  340.57
  2694.4  340.66  2710.1  340.51  2735.2  339.99  2763.7  339.08  2772.9  339.07
  2785.3  338.27  2800.7  338.48  2808.4  339.33  2832.5  339.75  2861.5  339.81
  2876.2  339.59    2908  339.49    2917  337.84  2934.7  333.66  2942.9   332.1
  2947.3   335.2  2949.3  338.13  2950.6  339.97  2961.5  340.63  2970.1  340.74
  3011.8  339.94    3041   339.9  3079.6  339.87  3108.8  339.69  3118.9  339.66
  3144.2  340.03  3179.7  340.24  3191.1  340.06  3197.4  339.65  3205.1  339.37
  3222.8  339.08  3240.5  338.44  3280.7  337.32    3286  338.45  3291.6  339.59
    3316  339.41  3323.3  339.38  3364.5  339.95  3371.5  340.05  3387.8  340.29
  3406.4  340.59  3442.5  339.77  3455.4  339.49    3507   338.5  3523.2  338.78
  3571.8  339.84  3596.4  340.39  3604.1   338.8  3607.2   338.1  3621.8  338.33
  3624.1  339.12  3629.5  340.19  3641.9  340.54  3653.5  340.74    3665   338.6
    3672  337.25  3690.4     338  3722.8  339.56  3725.6  339.67  3775.9  339.81
  3779.2  339.82  3824.4  339.44  3852.2  339.08    3883  338.97  3899.9   339.6
  3925.6  340.49  3937.7  340.56  4003.9  340.78  4016.3  340.54  4022.9  340.55
    4024  340.53    4034  340.67  4079.4  340.05  4080.9  340.04  4130.1  340.33
    4158  340.79  4198.9  341.36  4228.9  341.27  4274.3   341.1  4286.6  340.21
  4299.5  339.32    4317  341.22  4342.1     341  4370.5  340.71  4415.3  340.62
  4448.4  340.56  4449.2  340.56  4521.4     341  4534.7  341.11  4584.8   341.5
  4600.1  341.67  4607.7  341.85  4617.9  342.28  4643.8  343.22    4658  344.35
    4661  344.65  4665.6  344.87  4673.3  345.01  4681.1  346.43  4685.7  348.26
  4686.4  349.04
#Mann= 3 , 0 , 0 
       0    .107       0    1989     .05       0    2075     .13       0
Bank Sta=1989,2075
XS Rating Curve= 0 ,0
Exp/Cntr=0.3,0.1

Type RM Length L Ch R = 1 ,55.5744*,444,922,437
BEGIN DESCRIPTION:
Interpolated river station 55.5744
END DESCRIPTION:
XS GIS Cut Line=5
0.513244359875180.783794451888850.463257025322210.77782117107794
0.462260929393130.777687605182590.461264833464050.77755403928723
0.403898697400530.77078709648713
Node Last Edited Time=Apr/15/1997 12:07:36
#Sta/Elev= 166 
       0  345.51      .3   345.1    90.1  344.98   171.9  342.41   178.4  342.21
   202.4  340.76   271.3  340.44   289.7  337.94   313.7  340.77   337.6  340.84
   466.2  339.85   518.8  339.47   661.3   339.7     791  339.13   977.7  338.99
  1026.5  336.58  1034.8  338.79  1067.9  339.59  1198.5  340.17  1213.5  340.23
  1246.6  340.34  1312.7  340.65  1412.8  341.05  1554.5  340.86  1581.1  335.88
  1583.8  336.01  1660.2  339.84  1726.5  339.97  1735.9  339.77  1849.7  337.24
  1864.9  338.71  1877.3  339.91  1985.8  340.05  2083.1  339.83    2122  339.74
    2179  334.83  2183.1   330.1  2185.4  328.64  2192.7  325.01  2239.5  326.11
  2245.3  326.51    2251  330.35    2266   341.5  2280.7  341.23  2316.9  341.11
  2335.1  341.05  2389.9  338.68  2438.7   336.6  2476.4  336.34  2484.3  336.93
  2538.1  340.86  2539.6  340.85  2607.5  340.71  2651.1  340.69  2655.4   340.7
  2701.9  340.81  2709.3  340.45  2721.1  340.37    2738  340.64  2745.4  340.97
  2769.7  341.01  2796.3  340.79  2798.7  340.79    2825  340.36  2849.4  340.36
    2859  340.34    2874  340.15  2898.1  339.54  2925.3  338.69  2934.2  338.74
    2946  338.41  2960.8   338.6  2968.1  339.07  2991.3  339.42    3019  339.34
    3033  339.17  3063.5     339  3072.1  337.08  3089.1  332.87    3097   331.1
  3101.2  334.65  3103.1     338  3104.3  340.09  3114.8  340.62    3123  340.56
  3162.9  339.62  3190.9  339.56  3227.8  339.49  3255.8  339.25  3265.5  339.18
  3289.7  339.53  3323.6  339.85  3334.5  339.83  3340.6  339.48    3348  339.15
  3364.9  338.58  3381.9  337.84  3420.4  336.31  3425.4  337.58  3430.8   338.9
  3454.2  338.76  3461.2  338.74  3500.6  339.44  3507.3  339.56  3522.9  339.85
  3540.7  340.19  3575.2  339.28  3587.7  338.97    3637   337.8  3652.6  338.11
    3699  339.14  3722.6  339.66    3730  338.95  3732.9  338.62    3747  338.89
  3749.2  339.31  3754.3   339.9  3766.1   340.2  3777.2  340.42  3788.3  337.95
    3795  336.43  3812.6  337.29  3843.6  338.95  3846.3  339.09  3894.5  339.29
  3897.6  339.31  3940.9   338.9  3967.5  338.59    3997  338.39  4013.2  339.06
  4037.8  340.04  4049.3  340.11  4112.8  340.39  4124.6   340.3    4131  340.32
  4131.9  340.31  4141.5  340.31    4185  339.68  4186.4  339.67  4233.5  339.92
  4260.3  340.39  4299.5  341.03  4328.1  340.93  4371.7  340.75  4383.4  339.74
  4395.7  338.71  4412.5  340.86  4436.5  340.59  4463.8  340.26  4506.6  340.15
  4538.3  340.08  4539.1  340.08  4608.2   340.6  4620.9  340.72  4668.9  341.17
  4683.5  341.34  4690.9  341.53  4700.6  341.99  4725.4  343.11    4739  344.43
  4741.9  344.77  4746.3  345.18  4753.7  345.75  4761.1  346.96  4765.5  348.18
  4766.2  348.62
#Mann= 3 , 0 , 0 
       0    .103       0    2179     .05       0    2266     .13       0
Bank Sta=2179,2266
XS Rating Curve= 0 ,0
Exp/Cntr=0.3,0.1

Type RM Length L Ch R = 1 ,55.40   ,466,950,508
BEGIN DESCRIPTION:
River mile 55.40
END DESCRIPTION:
XS GIS Cut Line=5
0.520587413413610.761880997447820.466099829602560.75670724837152
0.465091912278580.756574951237480.464083994954610.75644265410343
0.409130277990770.75129017378802
Node Last Edited Time=Apr/15/1997 12:07:36
#Sta/Elev= 78 
       0   344.7      98   344.7     194   341.7     220   340.1     295   339.8
     315     337     341   340.2     367   340.3     564   338.9     719   339.2
     860   338.6    1063   338.5    1116   335.8    1125   338.3    1161   339.2
    1303   339.9    1536   340.9    1690   340.7    1719   335.1    1805   339.5
    1877   339.6    2011   336.5    2041   339.5    2159   339.7    2307   339.4
    2369   333.9    2372   329.4    2379   324.4    2435   325.5    2441   329.5
    2457   341.2    2471   340.9    2523   340.7    2622   335.7    2658   335.4
    2717   340.5    2825   340.4    2966   340.9    3038   339.8    3087   338.3
    3150   339.1    3219   338.5    3251   330.1    3255   334.1    3258   340.2
    3268   340.6    3314   339.3    3376   339.1    3412   338.7    3478   339.6
    3560   335.3    3570   338.2    3599   338.1    3658   339.4    3675   339.8
    3708   338.8    3767   337.1    3901   340.1    3918   335.6    3967   338.5
    4016   338.8    4111   337.8    4150   339.6    4239   340.1    4292   339.3
    4337   339.5    4400   340.7    4469   340.4    4492   338.1    4508   340.5
    4557   339.8    4629   339.6    4695   340.2    4767     341    4774   341.2
    4807     343    4820   344.5    4846   348.2
#Mann= 3 , 0 , 0 
       0      .1       0    2369     .05       0    2457     .13       0
Bank Sta=2369,2457
XS Rating Curve= 0 ,0