Flow Title=100 Year Profile
Number of Profiles= 1 
Profile Names=100 yr      
River Rch & RM=Critical Cr.,Upper Reach     ,12      
    9000
River Rch & RM=Critical Cr.,Upper Reach     ,8       
    9500
Boundary for River Rch & Prof#=Critical Cr.,Upper Reach     , 1 
Up Type= 3 
Up Slope=0.01
Dn Type= 3 
Dn Slope=0.01
