Geom Title=Base Geometry Data
Program Version=4.01
Viewing Rectangle= 0.4434 , 0.679 , 0.9126 , 0.0753 

River Reach=Critical Cr.    ,Upper Reach     
Reach XY= 7 
             0.5             0.9       0.4883721       0.7558824
       0.5073996       0.6294118       0.5095137       0.4970588
       0.4926004       0.3411765       0.5158562       0.1970588
             0.5             0.1
Rch Text X Y=0.3044397,0.55
Reverse River Text= 0 

Type RM Length L Ch R = 1 ,12      ,500,500,500
BEGIN DESCRIPTION:
Upstream Boundary - XSec 12
END DESCRIPTION:
XS GIS Cut Line=5
0.605202394333470.891511911653610.503187951343440.89974278520162
             0.5             0.90.496812048656560.90025721479838
 0.44608820061430.90434978803475
Node Last Edited Time=Mar/14/1997 13:10:18
#Sta/Elev= 77 
       0  1821.4      11  1818.2      26  1813.9      43    1812      55  1812.5
      67  1811.4      73  1812.3      88  1811.4      97  1810.5     126  1810.6
     148  1810.6     175  1811.2     195  1811.2     216  1812.5     234  1814.4
     258  1814.8     264  1812.2     269  1811.6     271  1810.5     274  1810.7
     277  1810.7     281  1810.7     288    1811     292    1811     296    1811
     298  1810.2     304  1811.4     311  1812.4     318  1813.7     321  1813.7
     325  1813.7     328    1812     337    1812     342    1811     346    1812
     358  1811.9     368  1811.1     400  1811.6     432  1811.3     466  1811.9
     494  1812.4     529  1812.4     562  1812.2     586  1812.2     609  1812.2
     628  1811.8     652  1812.3     679  1812.3     709  1813.1     720  1814.5
     726  1809.9     731  1805.5     740  1803.6     746  1804.6     748  1805.5
     754  1808.8     765  1814.2     785  1813.6     817  1814.1     852  1814.5
     890    1815     927  1815.2     960  1816.5     984    1818    1002  1818.9
    1015  1819.4    1026  1820.5    1038  1821.6    1051  1822.4    1065  1822.9
    1075  1822.9    1092  1822.8    1096  1819.8    1103  1820.1    1108  1824.9
    1116  1827.4    1123  1828.8
#Mann= 3 , 0 , 0 
       0      .1       0     720     .04       0     765      .1       0
Bank Sta=720,765
XS Rating Curve= 0 ,0
Exp/Cntr=0.3,0.1

Type RM Length L Ch R = 1 ,11      ,500,500,490
BEGIN DESCRIPTION:
Cross Section 11
END DESCRIPTION:
XS GIS Cut Line=5
0.616145825748080.824312621816650.49924315101478 0.8287565249039
0.494284115591660.829156636812480.489325080168530.82955674872106
0.445685568445020.83307773351661
Node Last Edited Time=Mar/14/1997 13:10:18
#Sta/Elev= 64 
       0  1818.9      21  1816.2      43  1814.2      61  1814.3      79  1813.8
     118  1813.9     143  1812.2     172  1810.9     196  1810.4     229  1810.6
     285  1810.7     285    1830     415    1830     415  1810.3     421  1809.3
     424  1810.2     428  1810.2     432  1810.2     437  1809.5     444  1807.9
     452  1807.9     453  1808.7     457  1808.7     461  1808.7     483  1807.9
     486  1806.7     491  1808.1     501  1808.1     506  1807.5     517  1807.6
     537  1806.8     569  1806.6     599  1806.9     640  1807.2     674  1807.3
     685  1807.2     709  1807.7     741  1807.8     772  1807.9     789  1807.8
     803  1807.7     823  1807.2     841  1803.6     850  1801.1     851  1801.1
     859  1800.7     866  1801.5     868  1801.1     877  1804.3     893  1807.9
     919  1808.5     942  1809.1     968  1810.1     988  1811.2    1013  1811.7
    1040  1812.5    1068    1813    1097  1813.1    1126  1813.1    1151  1813.6
    1165  1815.3    1179  1819.2    1196  1818.5    1201  1818.9
#Mann= 3 , 0 , 0 
       0      .1       0     823     .04       0     893      .1       0
Bank Sta=823,893
XS Rating Curve= 0 ,0
Exp/Cntr=0.3,0.1

Type RM Length L Ch R = 1 ,10      ,500,510,500
BEGIN DESCRIPTION:
Cross Section 10
END DESCRIPTION:
XS GIS Cut Line=5
0.643888980009850.761602100336090.491262517476550.75812586994112
0.488568231183310.758313273624960.48587394489007 0.7585006773088
0.45404339058785 0.7576865983847
Node Last Edited Time=Mar/14/1997 13:10:18
#Sta/Elev= 67 
       0  1814.8      11  1812.7      51  1811.6      81  1809.8     112  1808.7
     141  1806.6     162  1804.1     191  1801.8     213  1800.3     248  1799.5
     284  1798.2     315  1799.3     346  1800.5     377  1801.3     409    1801
     441  1801.4     482  1801.9     505  1801.6     520  1800.6     557  1801.7
     569  1800.9     588  1801.4     594  1802.2     600  1804.3     603  1803.3
     607  1803.9     611  1803.9     614  1803.9     617    1803     625  1802.8
     629  1802.1     645  1802.3     671  1802.3     698  1802.9     724  1802.5
     747  1802.4     756  1806.3     772    1820     793  1820.7     821  1821.1
     837    1810     849  1802.2     858  1801.5     871  1801.3     901  1802.2
     934  1803.2     970  1802.8    1007  1803.5    1040  1803.7    1074  1803.3
    1083  1801.6    1084  1801.6    1095  1797.6    1098  1795.9    1107  1794.4
    1108  1798.2    1112  1802.6    1131  1803.8    1159  1804.4    1185  1804.6
    1208  1804.5    1231  1805.5    1258  1807.8    1282  1810.3    1301  1812.5
    1320  1813.9    1336  1815.4
#Mann= 3 , 0 , 0 
       0      .1       0    1074     .04       0    1112      .1       0
Bank Sta=1074,1112
XS Rating Curve= 0 ,0
Exp/Cntr=0.3,0.1

Type RM Length L Ch R = 1 ,9       ,500,500,460
BEGIN DESCRIPTION:
Cross Section 9
END DESCRIPTION:
XS GIS Cut Line=5
0.663295892085140.693802732826740.502098048391450.68710276034377
0.498794766269520.686605781594760.495491484147590.68610880284575
0.457679446241280.68041998227193
Node Last Edited Time=Mar/14/1997 13:10:18
#Sta/Elev= 62 
       0  1813.3      12  1813.3      21    1813      35  1808.5      54  1802.4
      72  1798.9      93  1796.8     133  1796.5     169  1796.8     208  1797.1
     248  1796.8     274  1796.6     306  1797.4     338  1797.1     375  1797.8
     411  1798.2     459    1798     499  1797.7     535  1797.5     557  1797.8
     583  1796.9     607  1797.5     626    1798     649  1796.3     667  1796.8
     675    1799     679    1799     684    1799     687  1797.6     697    1799
     715  1797.3     729  1796.9     770  1796.5     816  1796.8     864  1796.9
     900  1796.8     929  1796.7     976  1797.1    1016  1796.9    1050  1795.6
    1087  1798.4    1111  1797.5    1112  1797.5    1135  1796.5    1140  1791.5
    1142  1789.7    1150  1788.7    1157  1791.5    1162  1793.4    1182  1797.2
    1204  1798.3    1226  1797.5    1254    1797    1270  1800.3    1281  1797.9
    1316  1801.2    1352  1805.9    1378  1808.1    1398  1809.5    1412  1810.4
    1439  1810.8    1451  1813.5
#Mann= 3 , 0 , 0 
       0      .1       0    1135     .04       0    1182      .1       0
Bank Sta=1135,1182
XS Rating Curve= 0 ,0
Exp/Cntr=0.3,0.1

Type RM Length L Ch R = 1 ,8       ,480,500,530
BEGIN DESCRIPTION:
Cross Section 8
END DESCRIPTION:
XS GIS Cut Line=5
0.665819844312430.624366406858640.511235283065050.61623546011889
0.507610992930510.616177568633440.503986702795980.61611967714799
0.466808780089770.61392651878135
Node Last Edited Time=Mar/14/1997 13:10:18
#Sta/Elev= 68 
       0    1803      22  1801.5      36  1799.8      55  1796.4      70  1794.1
      94  1794.6     123  1794.7     152    1794     182  1794.1     212  1793.5
     249    1793     270  1794.1     283  1793.2     299    1793     324  1792.6
     337  1792.5     343  1792.3     350  1792.9     375  1792.4     405  1792.5
     436    1792     449  1791.4     461  1792.2     490  1792.7     518  1792.2
     536  1792.2     548  1791.7     572  1790.8     590  1790.8     596  1792.4
     599  1792.4     603  1792.4     606  1791.6     613  1792.2     635  1791.5
     650  1791.7     673  1790.5     708  1790.6     738    1791     773  1791.3
     809  1791.3     847    1791     886  1790.3     916  1789.9     946  1790.8
     979  1791.3    1010  1791.9    1041  1792.2    1070  1792.4    1079    1793
    1089  1792.5    1096  1788.7    1101  1784.6    1109  1784.3    1116  1784.7
    1119  1784.6    1131  1787.3    1140  1790.3    1148  1790.8    1181  1791.5
    1208  1792.3    1241  1792.3    1272  1792.9    1302  1793.6    1331  1794.6
    1358  1795.8    1382  1798.9    1402  1802.7
#Mann= 3 , 0 , 0 
       0      .1       0    1089     .04       0    1140      .1       0
Bank Sta=1089,1140
XS Rating Curve= 0 ,0
Exp/Cntr=0.3,0.1

Type RM Length L Ch R = 1 ,7       ,490,520,500
BEGIN DESCRIPTION:
Cross Section 7
END DESCRIPTION:
XS GIS Cut Line=5
0.64641529208053 0.54529786532690.510806990956960.54514597487933
0.508746120096150.545113056191530.506685249235330.54508013750373
0.473427057412520.54454889799021
Node Last Edited Time=Mar/14/1997 13:10:18
#Sta/Elev= 55 
       0  1799.3      22  1794.5      44  1792.4      69  1791.8     108  1791.1
     133  1791.4     164  1791.3     206  1791.2     244  1791.1     281  1791.2
     316    1791     353  1790.5     388  1790.6     418  1790.7     438    1790
     464  1790.7     479  1790.6     488    1790     496  1791.1     508  1791.2
     516  1789.1     540  1788.1     550  1786.6     554  1787.7     558  1787.7
     561  1787.7     564  1786.3     570  1788.8     584  1789.2     606  1788.9
     621  1787.3     652  1786.4     680  1785.6     709  1784.9     740  1785.3
     777  1785.1     806  1784.9     830  1784.3     853  1783.9     886  1784.8
     912  1784.6     932  1784.8     954  1784.6     963  1779.7     970  1777.2
     976  1779.7     983  1784.5    1004  1787.5    1024  1788.8    1050  1790.6
    1077  1792.1    1108  1794.3    1138  1795.4    1169  1796.7    1217  1798.6
#Mann= 3 , 0 , 0 
       0      .1       0     954     .04       0     983      .1       0
Bank Sta=954,983
XS Rating Curve= 0 ,0
Exp/Cntr=0.3,0.1

Type RM Length L Ch R = 1 ,6       ,550,530,450
BEGIN DESCRIPTION:
Cross Section 6
END DESCRIPTION:
XS GIS Cut Line=5
0.598125683282380.465185659068290.51230671825436 0.4707478732294
0.506724666411590.471353528377110.501142614568820.47195918352483
0.454243021936280.47572712371332
Node Last Edited Time=Mar/14/1997 13:10:18
#Sta/Elev= 55 
       0  1798.1      20  1796.8      38  1795.1      58  1794.9      80  1795.8
      88  1795.1      98  1797.6     106  1796.9     115  1794.7     139  1793.9
     164  1792.9     191    1792     222  1791.6     257  1790.4     280  1789.9
     300  1789.1     301  1787.3     310  1786.7     317  1789.6     323    1788
     330  1785.4     339  1782.9     343  1783.4     346  1783.4     350  1783.4
     353  1782.8     362  1785.1     369    1786     395  1785.4     398  1783.9
     422  1783.2     452  1782.1     476  1780.7     499  1779.2     522  1779.8
     550    1780     579  1778.9     605  1780.6     613  1776.6     626  1775.1
     635  1774.5     643  1775.3     684  1783.8     705  1784.3     730  1784.7
     785  1785.9     809  1786.7     817  1787.7     854  1788.2     878  1788.5
     907  1789.8     937    1792     961    1794     987  1795.3    1015  1797.3
#Mann= 3 , 0 , 0 
       0      .1       0     605     .04       0     684      .1       0
Bank Sta=605,684
XS Rating Curve= 0 ,0
Exp/Cntr=0.3,0.1

Type RM Length L Ch R = 1 ,5       ,500,570,600
BEGIN DESCRIPTION:
Cross Section 5
END DESCRIPTION:
XS GIS Cut Line=5
0.62726101736015 0.3933139043452 0.50220175739140.39606411868256
0.498598154303030.396455111246280.494994551214660.39684610380999
0.490189747096840.39736742722827
Node Last Edited Time=Mar/14/1997 13:10:18
#Sta/Elev= 16 
       0    1780     290    1780     310    1778     315    1782     325    1782
     335    1778     380    1776     480    1774     635    1773     880    1774
     910  1768.8     918  1768.5     925  1768.8     931  1776.2     944  1776.6
     965  1780.9
#Mann= 3 , 0 , 0 
       0      .1       0     880     .04       0     931      .1       0
Bank Sta=880,931
XS Rating Curve= 0 ,0
Exp/Cntr=0.3,0.1

Type RM Length L Ch R = 1 ,4       ,480,520,500
BEGIN DESCRIPTION:
Cross Section 4
END DESCRIPTION:
XS GIS Cut Line=5
0.676642071787140.315336907490970.499246229764350.31649923349371
0.496650090885620.31608030308797 0.49405395200690.31566137268222
0.454929384154210.31122966025543
Node Last Edited Time=Mar/14/1997 13:10:18
#Sta/Elev= 85 
       0  1789.3      18  1785.2      44  1781.5      70    1780      94  1778.8
     126  1778.4     150  1778.1     178  1777.7     212  1777.4     243  1777.8
     254  1775.9     284  1775.2     314    1775     358  1774.6     373  1774.5
     388  1774.6     407  1773.8     424    1775     441    1775     461  1775.7
     465  1775.7     466    1774     474    1774     482  1776.9     488    1775
     503  1774.7     506  1773.5     509  1773.9     512  1773.9     516  1773.9
     518  1772.2     527  1773.9     543  1772.5     554  1772.8     565  1772.9
     587  1771.9     619  1771.3     641  1770.4     658  1770.6     680  1769.2
     697  1765.9     709    1763     713  1763.7     733    1767     747  1768.5
     765  1769.4     798  1769.4     833  1769.3     865  1768.9     889  1769.1
     907    1769     941  1769.6     974  1769.2    1006  1769.9    1032  1769.8
    1060  1769.6    1088  1770.1    1126  1770.2    1159  1770.5    1187  1770.5
    1198    1771    1207  1768.5    1221  1769.3    1248  1769.2    1257    1764
    1263    1763    1267    1764    1275    1764    1285  1773.7    1302  1781.4
    1320  1789.6    1332  1789.7    1352  1790.5    1373  1790.2    1396  1788.7
    1412  1789.6    1428  1790.2    1458  1790.5    1492  1790.8    1511  1789.9
    1517  1787.2    1525  1788.9    1538  1788.6    1549    1791    1562  1797.8
#Mann= 3 , 0 , 0 
       0      .1       0    1248     .04       0    1285      .1       0
Bank Sta=1248,1285
XS Rating Curve= 0 ,0
Exp/Cntr=0.3,0.1

Type RM Length L Ch R = 1 ,3       ,520,510,450
BEGIN DESCRIPTION:
Cross Section 3
END DESCRIPTION:
XS GIS Cut Line=5
0.65656161191059 0.24499554972380.512003893717750.24368519543438
0.508425432020050.243107750821060.504846970322340.24253030620773
0.448908702937940.23507857188791
Node Last Edited Time=Mar/14/1997 13:10:18
#Sta/Elev= 69 
       0    1779      18  1776.9      41  1775.3      69  1774.4      92  1773.7
     112  1773.4     130  1773.5     156  1773.4     175  1772.5     193  1771.7
     211  1772.3     231  1772.7     254  1772.7     274  1771.8     295  1771.2
     315  1771.5     345  1771.5     386  1771.3     417  1771.8     423  1769.2
     428  1769.2     434  1771.3     444  1771.5     470  1770.1     476  1770.1
     481  1770.1     486  1768.5     502  1765.4     513  1767.1     534  1768.1
     557  1767.6     591  1764.8     619  1764.2     647  1762.3     666  1760.3
     684  1760.5     707  1762.4     735  1765.3     766  1765.8     796    1766
     825  1765.8     860  1765.6     906  1765.6     940  1765.8     980  1765.8
     991  1766.1    1017  1765.8    1025  1763.1    1032  1762.4    1034  1761.3
    1053  1759.4    1059  1761.3    1068  1763.5    1093  1765.1    1116  1765.6
    1134  1765.5    1156  1766.9    1169    1770    1188  1770.5    1218  1770.9
    1234  1771.5    1258  1771.2    1290  1771.1    1330  1770.6    1365  1770.1
    1390  1770.9    1415  1773.5    1442    1777    1465  1778.6
#Mann= 3 , 0 , 0 
       0      .1       0    1017     .04       0    1068      .1       0
Bank Sta=1017,1068
XS Rating Curve= 0 ,0
Exp/Cntr=0.3,0.1

Type RM Length L Ch R = 1 ,2       ,500,510,480
BEGIN DESCRIPTION:
Cross Section 2
END DESCRIPTION:
XS GIS Cut Line=5
0.624139526394010.166696107632650.515055246650550.17099655103158
0.511688348252930.171546590949360.508321449855310.17209663086715
0.468172185312140.17631049750097
Node Last Edited Time=Mar/14/1997 13:10:18
#Sta/Elev= 61 
       0  1774.1      30  1769.5      59  1765.8      89  1762.9     116  1761.4
     150    1760     165  1759.9     185  1760.5     213  1761.5     218  1761.3
     220  1759.5     224  1759.2     232  1762.8     240  1763.4     245  1762.5
     248  1759.2     255  1759.8     260  1761.4     263  1761.4     267  1761.4
     271  1759.3     285  1758.5     298  1758.7     315  1758.6     326  1757.7
     336  1755.8     347  1755.7     358  1755.8     374  1757.3     411  1757.3
     433  1756.5     459  1756.4     482  1755.2     508  1753.5     539  1755.1
     550  1755.8     578    1758     606    1759     632  1759.1     666  1760.1
     693  1759.6     718  1759.4     748  1760.2     760  1759.5     768  1759.8
     771  1755.5     773  1754.6     776  1753.6     788  1754.6     795  1755.4
     816  1762.6     828  1761.9     851  1761.9     893  1762.5     919  1761.9
     944  1763.5     973  1764.6    1009  1766.7    1034    1769    1065  1771.3
    1100  1773.9
#Mann= 3 , 0 , 0 
       0      .1       0     768     .04       0     816      .1       0
Bank Sta=768,816
XS Rating Curve= 0 ,0
Exp/Cntr=0.3,0.1

Type RM Length L Ch R = 1 ,1       ,0,0,0
BEGIN DESCRIPTION:
Downstream Boundary - XSec 1
END DESCRIPTION:
XS GIS Cut Line=5
0.611227466967640.083545378220610.503366898397620.09944996008222
             0.5             0.10.496633101602380.10055003991779
0.469838201854680.10492744093016
Node Last Edited Time=Mar/14/1997 13:10:18
#Sta/Elev= 61 
       0    1767      23  1765.4      49  1763.5      69    1762      87  1759.1
     103  1758.1     113  1756.9     122  1756.9     127  1753.2     131  1753.1
     140  1757.7     152  1757.7     160    1755     168  1755.6     171  1755.6
     174  1755.6     177  1754.7     183  1755.9     190    1756     208  1754.9
     220  1754.7     247  1753.7     282  1753.3     321  1752.7     352  1750.9
     373  1748.6     391  1747.2     404  1748.3     434  1752.1     452  1753.6
     477  1753.7     499  1752.6     532  1753.2     572  1753.4     613  1753.9
     644  1753.3     677  1754.4     698  1754.7     728  1755.6     750  1756.2
     767  1755.7     772  1749.9     775  1749.3     775    1748     778  1747.4
     785  1749.3     789  1749.7     797  1752.9     807  1755.5     815  1756.9
     827  1755.3     847  1756.3     866  1756.2     871  1756.9     877  1759.5
     893  1760.7     918    1762     936  1763.2     963  1764.3     990  1766.2
    1006  1766.7
#Mann= 3 , 0 , 0 
       0      .1       0     767     .04       0     815      .1       0
Bank Sta=767,815
XS Rating Curve= 0 ,0
Exp/Cntr=0.3,0.1

Chan Stop Cuts= 1 
Chan Mod River=Critical Cr.    
Chan Mod Reach=Upper Reach     
Chan Mod RS=12      ,0,500,500,500,742.5,100,1803.6,2,2,0.025,742.5,400,1810,2,2,0.03,,,1803.6,,,
Chan Mod RS=11      ,0,500,500,490,858,100,1798.6,2,2,0.025,858,400,1805,2,2,0.03,,,1798.6,,,
Chan Mod RS=10      ,0,500,510,500,1093,100,1793.6,2,2,0.025,1093,400,1800,2,2,0.03,,,1793.6,,,
Chan Mod RS=9       ,0,500,500,460,1158.5,100,1788.5,2,2,0.025,1158.5,400,1794.9,2,2,0.03,,,1788.5,,,
Chan Mod RS=8       ,0,480,500,530,1114.5,100,1783.5,2,2,0.025,1114.5,400,1789.9,2,2,0.03,,,1783.5,,,
Chan Mod RS=7       ,0,490,520,500,968.5,100,1778.5,2,2,0.025,968.5,400,1784.9,2,2,0.03,,,1778.5,,,
Chan Mod RS=6       ,0,550,530,450,644.5,100,1773.3,2,2,0.025,644.5,400,1779.7,2,2,0.03,,,1773.3,,,
Chan Mod RS=5       ,0,500,570,600,905.5,100,1768,2,2,0.025,905.5,400,1774.4,2,2,0.03,,,1768,,,
Chan Mod RS=4       ,0,480,520,500,1266.5,100,1762.3,2,2,0.025,1266.5,400,1768.7,2,2,0.03,,,1762.3,,,
Chan Mod RS=3       ,0,520,510,450,1042.5,100,1757.1,2,2,0.025,1042.5,400,1763.5,2,2,0.03,,,1757.1,,,
Chan Mod RS=2       ,0,500,510,480,792,100,1752,2,2,0.025,792,400,1758.4,2,2,0.03,,,1752,,,
Chan Mod RS=1       ,0,0,0,0,791,100,1746.9,2,2,0.025,791,400,1753.3,2,2,0.03,,,1746.9,,,
Chan Mod GeomFile=Modified Geometry


CM Template=Example Template,True, 3.402823E+38 , 0 
 CM #Left= 5 
  10,0.5,0.05,0.03,False
  25,0.1,0.004,0.03,False
  10,5,0.5,0.03,True
  150,1.5,0.01,0.04,False
  6,2,0.3333333,0.04,False
 CM #Right= 5 
  10,0.5,0.05,0.03,False
  25,0.1,0.004,0.03,False
  10,5,0.5,0.03,True
  150,1.5,0.01,0.05,False
  6,2,0.3333333,0.05,False

Use User Specified Reach Order=0
User Specified Reach Order=Critical Cr.    ,Upper Reach     
GIS Ratio Cuts To Invert=-1
