Geom Title=Modified Geometry
Program Version=4.00
Viewing Rectangle= 0.4442 , 0.6816 , 0.9125 , 0.0735 

River Reach=Critical Cr.    ,Upper Reach     
Reach XY= 7 
             0.5             0.9       0.4883721       0.7558824
       0.5073996       0.6294118       0.5095137       0.4970588
       0.4926004       0.3411765       0.5158562       0.1970588
             0.5             0.1
Rch Text X Y=0.3044397,0.55
Reverse River Text= 0 

Type RM Length L Ch R = 1 ,12      ,500,500,500
BEGIN DESCRIPTION:
Upstream Boundary - XSec 12
END DESCRIPTION:
Node Last Edited Time=Mar/17/1998 12:44:38
#Sta/Elev= 66 
       0  1821.4      11  1818.2      26  1813.9      43    1812      55  1812.5
      67  1811.4      73  1812.3      88  1811.4      97  1810.5     126  1810.6
     148  1810.6     175  1811.2     195  1811.2     216  1812.5     234  1814.4
     258  1814.8     264  1812.2     269  1811.6     271  1810.5     274  1810.7
     277  1810.7     281  1810.7     288    1811     292    1811     296    1811
     298  1810.2     304  1811.4     311  1812.4     318  1813.7     321  1813.7
     325  1813.7     328    1812     337    1812     342    1811     346    1812
     358  1811.9     368  1811.1     400  1811.6     432  1811.3     466  1811.9
     494  1812.4     529  1812.4  537.81 1812.35   542.5    1810   679.7    1810
   692.5  1803.6     740  1803.6   792.5  1803.6   805.3    1810   942.5    1810
  955.12 1816.31     960  1816.5     984    1818    1002  1818.9    1015  1819.4
    1026  1820.5    1038  1821.6    1051  1822.4    1065  1822.9    1075  1822.9
    1092  1822.8    1096  1819.8    1103  1820.1    1108  1824.9    1116  1827.4
    1123  1828.8
#Mann= 5 ,-1 , 0 
       0      .1       0  537.81     .03       0   679.7    .025       0
   805.3     .03       0  955.12      .1       0
Bank Sta=537.81,955.12
XS Rating Curve= 0 ,0
Exp/Cntr=0.3,0.1

Type RM Length L Ch R = 1 ,11      ,500,500,490
BEGIN DESCRIPTION:
Cross Section 11
END DESCRIPTION:
Node Last Edited Time=Mar/17/1998 12:44:38
#Sta/Elev= 49 
       0  1818.9      21  1816.2      43  1814.2      61  1814.3      79  1813.8
     118  1813.9     143  1812.2     172  1810.9     196  1810.4     229  1810.6
     285  1810.7     285    1830     415    1830     415  1810.3     421  1809.3
     424  1810.2     428  1810.2     432  1810.2     437  1809.5     444  1807.9
     452  1807.9     453  1808.7     457  1808.7     461  1808.7     483  1807.9
     486  1806.7     491  1808.1     501  1808.1     506  1807.5     517  1807.6
     537  1806.8     569  1806.6     599  1806.9     640  1807.2  653.52 1807.24
     658    1805   795.2    1805     808  1798.6     908  1798.6   920.8    1805
    1058    1805 1074.04 1813.02    1097  1813.1    1126  1813.1    1151  1813.6
    1165  1815.3    1179  1819.2    1196  1818.5    1201  1818.9
#Mann= 5 ,-1 , 0 
       0      .1       0  653.52     .03       0   795.2    .025       0
   920.8     .03       0 1074.04      .1       0
Bank Sta=653.52,1074.04
XS Rating Curve= 0 ,0
Exp/Cntr=0.3,0.1

Type RM Length L Ch R = 1 ,10      ,500,510,500
BEGIN DESCRIPTION:
Cross Section 10
END DESCRIPTION:
Node Last Edited Time=Mar/17/1998 12:44:38
#Sta/Elev= 53 
       0  1814.8      11  1812.7      51  1811.6      81  1809.8     112  1808.7
     141  1806.6     162  1804.1     191  1801.8     213  1800.3     248  1799.5
     284  1798.2     315  1799.3     346  1800.5     377  1801.3     409    1801
     441  1801.4     482  1801.9     505  1801.6     520  1800.6     557  1801.7
     569  1800.9     588  1801.4     594  1802.2     600  1804.3     603  1803.3
     607  1803.9     611  1803.9     614  1803.9     617    1803     625  1802.8
     629  1802.1     645  1802.3     671  1802.3     698  1802.9     724  1802.5
     747  1802.4     756  1806.3     772    1820     793  1820.7     821  1821.1
     837    1810     849  1802.2     858  1801.5     871  1801.3   889.3 1801.85
     893    1800  1030.2    1800    1043  1793.6    1143  1793.6  1155.8    1800
    1293    1800 1320.98 1813.99    1336  1815.4
#Mann= 5 ,-1 , 0 
       0      .1       0   889.3     .03       0  1030.2    .025       0
  1155.8     .03       0 1320.98      .1       0
Bank Sta=889.3,1320.98
XS Rating Curve= 0 ,0
Exp/Cntr=0.3,0.1

Type RM Length L Ch R = 1 ,9       ,500,500,460
BEGIN DESCRIPTION:
Cross Section 9
END DESCRIPTION:
Node Last Edited Time=Mar/17/1998 12:44:38
#Sta/Elev= 49 
       0  1813.3      12  1813.3      21    1813      35  1808.5      54  1802.4
      72  1798.9      93  1796.8     133  1796.5     169  1796.8     208  1797.1
     248  1796.8     274  1796.6     306  1797.4     338  1797.1     375  1797.8
     411  1798.2     459    1798     499  1797.7     535  1797.5     557  1797.8
     583  1796.9     607  1797.5     626    1798     649  1796.3     667  1796.8
     675    1799     679    1799     684    1799     687  1797.6     697    1799
     715  1797.3     729  1796.9     770  1796.5     816  1796.8     864  1796.9
     900  1796.8     929  1796.7  954.47 1796.92   958.5  1794.9  1095.7  1794.9
  1108.5  1788.5  1208.5  1788.5  1221.3  1794.9  1358.5  1794.9 1386.02 1808.66
    1398  1809.5    1412  1810.4    1439  1810.8    1451  1813.5
#Mann= 5 ,-1 , 0 
       0      .1       0  954.47     .03       0  1095.7    .025       0
  1221.3     .03       0 1386.02      .1       0
Bank Sta=954.47,1386.02
XS Rating Curve= 0 ,0
Exp/Cntr=0.3,0.1

Type RM Length L Ch R = 1 ,8       ,480,500,530
BEGIN DESCRIPTION:
Cross Section 8
END DESCRIPTION:
Node Last Edited Time=Mar/17/1998 12:44:38
#Sta/Elev= 56 
       0    1803      22  1801.5      36  1799.8      55  1796.4      70  1794.1
      94  1794.6     123  1794.7     152    1794     182  1794.1     212  1793.5
     249    1793     270  1794.1     283  1793.2     299    1793     324  1792.6
     337  1792.5     343  1792.3     350  1792.9     375  1792.4     405  1792.5
     436    1792     449  1791.4     461  1792.2     490  1792.7     518  1792.2
     536  1792.2     548  1791.7     572  1790.8     590  1790.8     596  1792.4
     599  1792.4     603  1792.4     606  1791.6     613  1792.2     635  1791.5
     650  1791.7     673  1790.5     708  1790.6     738    1791     773  1791.3
     809  1791.3     847    1791     886  1790.3  914.46 1789.92   914.5  1789.9
     916  1789.9  1051.7  1789.9  1064.5  1783.5  1164.5  1783.5  1177.3  1789.9
  1314.5  1789.9 1323.37 1794.34    1331  1794.6    1358  1795.8    1382  1798.9
    1402  1802.7
#Mann= 5 ,-1 , 0 
       0      .1       0  914.46     .03       0  1051.7    .025       0
  1177.3     .03       0 1323.37      .1       0
Bank Sta=914.46,1323.37
XS Rating Curve= 0 ,0
Exp/Cntr=0.3,0.1

Type RM Length L Ch R = 1 ,7       ,490,520,500
BEGIN DESCRIPTION:
Cross Section 7
END DESCRIPTION:
Node Last Edited Time=Mar/17/1998 12:44:38
#Sta/Elev= 51 
       0  1799.3      22  1794.5      44  1792.4      69  1791.8     108  1791.1
     133  1791.4     164  1791.3     206  1791.2     244  1791.1     281  1791.2
     316    1791     353  1790.5     388  1790.6     418  1790.7     438    1790
     464  1790.7     479  1790.6     488    1790     496  1791.1     508  1791.2
     516  1789.1     540  1788.1     550  1786.6     554  1787.7     558  1787.7
     561  1787.7     564  1786.3     570  1788.8     584  1789.2     606  1788.9
     621  1787.3     652  1786.4     680  1785.6     709  1784.9     740  1785.3
     768 1785.15   768.5  1784.9     806  1784.9     830  1784.3     853  1783.9
     886  1784.8  906.21 1784.64   918.5  1778.5  966.36  1778.5     970  1777.2
  973.12  1778.5  1018.5  1778.5  1031.3  1784.9  1168.5  1784.9 1194.09 1797.69
    1217  1798.6
#Mann= 8 ,-1 , 0 
       0      .1       0     768     .03       0     806      .1       0
  906.21    .025       0  966.36     .04       0  973.12    .025       0
  1031.3     .03       0 1194.09      .1       0
Bank Sta=768,1194.09
XS Rating Curve= 0 ,0
Exp/Cntr=0.3,0.1

Type RM Length L Ch R = 1 ,6       ,550,530,450
BEGIN DESCRIPTION:
Cross Section 6
END DESCRIPTION:
Node Last Edited Time=Mar/17/1998 12:44:38
#Sta/Elev= 50 
       0  1798.1      20  1796.8      38  1795.1      58  1794.9      80  1795.8
      88  1795.1      98  1797.6     106  1796.9     115  1794.7     139  1793.9
     164  1792.9     191    1792     222  1791.6     257  1790.4     280  1789.9
     300  1789.1     301  1787.3     310  1786.7     317  1789.6     323    1788
     330  1785.4     339  1782.9     343  1783.4     346  1783.4     350  1783.4
     353  1782.8     362  1785.1     369    1786     395  1785.4     398  1783.9
     422  1783.2  438.73 1782.59   444.5  1779.7  491.33  1779.7     499  1779.2
  518.16  1779.7  557.91  1779.7     579  1778.9   582.8 1779.15   594.5  1773.3
   694.5  1773.3   707.3  1779.7   844.5  1779.7  861.69  1788.3     878  1788.5
     907  1789.8     937    1792     961    1794     987  1795.3    1015  1797.3
#Mann= 8 ,-1 , 0 
       0      .1       0  438.73     .03       0  491.33      .1       0
  518.16     .03       0  557.91      .1       0   582.8    .025       0
   707.3     .03       0  861.69      .1       0
Bank Sta=438.73,861.69
XS Rating Curve= 0 ,0
Exp/Cntr=0.3,0.1

Type RM Length L Ch R = 1 ,5       ,500,570,600
BEGIN DESCRIPTION:
Cross Section 5
END DESCRIPTION:
Node Last Edited Time=Mar/17/1998 12:44:38
#Sta/Elev= 15 
       0    1780     290    1780     310    1778     315    1782     325    1782
     335    1778     380    1776     480    1774     635    1773   843.8 1773.85
   855.5    1768   955.5    1768     965 1772.75     965  1774.4     965  1780.9
#Mann= 2 ,-1 , 0 
       0      .1       0   843.8    .025       0
Bank Sta=843.8,965
XS Rating Curve= 0 ,0
Exp/Cntr=0.3,0.1

Type RM Length L Ch R = 1 ,4       ,480,520,500
BEGIN DESCRIPTION:
Cross Section 4
END DESCRIPTION:
Node Last Edited Time=Mar/17/1998 12:44:38
#Sta/Elev= 70 
       0  1789.3      18  1785.2      44  1781.5      70    1780      94  1778.8
     126  1778.4     150  1778.1     178  1777.7     212  1777.4     243  1777.8
     254  1775.9     284  1775.2     314    1775     358  1774.6     373  1774.5
     388  1774.6     407  1773.8     424    1775     441    1775     461  1775.7
     465  1775.7     466    1774     474    1774     482  1776.9     488    1775
     503  1774.7     506  1773.5     509  1773.9     512  1773.9     516  1773.9
     518  1772.2     527  1773.9     543  1772.5     554  1772.8     565  1772.9
     587  1771.9     619  1771.3     641  1770.4     658  1770.6     680  1769.2
     697  1765.9     709    1763     713  1763.7     733    1767     747  1768.5
     765  1769.4     798  1769.4     833  1769.3     865  1768.9     889  1769.1
     907    1769     941  1769.6     974  1769.2    1006  1769.9    1032  1769.8
    1060  1769.6 1064.54 1769.68  1066.5  1768.7  1203.7  1768.7  1216.5  1762.3
  1316.5  1762.3  1329.3  1768.7  1466.5  1768.7 1509.08 1789.99    1511  1789.9
    1517  1787.2    1525  1788.9    1538  1788.6    1549    1791    1562  1797.8
#Mann= 5 ,-1 , 0 
       0      .1       0 1064.54     .03       0  1203.7    .025       0
  1329.3     .03       0 1509.08      .1       0
Bank Sta=1064.54,1509.08
XS Rating Curve= 0 ,0
Exp/Cntr=0.3,0.1

Type RM Length L Ch R = 1 ,3       ,520,510,450
BEGIN DESCRIPTION:
Cross Section 3
END DESCRIPTION:
Node Last Edited Time=Mar/17/1998 12:44:38
#Sta/Elev= 57 
       0    1779      18  1776.9      41  1775.3      69  1774.4      92  1773.7
     112  1773.4     130  1773.5     156  1773.4     175  1772.5     193  1771.7
     211  1772.3     231  1772.7     254  1772.7     274  1771.8     295  1771.2
     315  1771.5     345  1771.5     386  1771.3     417  1771.8     423  1769.2
     428  1769.2     434  1771.3     444  1771.5     470  1770.1     476  1770.1
     481  1770.1     486  1768.5     502  1765.4     513  1767.1     534  1768.1
     557  1767.6     591  1764.8     619  1764.2     647  1762.3     666  1760.3
     684  1760.5     707  1762.4     735  1765.3     766  1765.8     796    1766
     825  1765.8  838.05 1765.73   842.5  1763.5   979.7  1763.5   992.5  1757.1
  1092.5  1757.1  1105.3  1763.5  1242.5  1763.5  1257.9  1771.2    1258  1771.2
    1290  1771.1    1330  1770.6    1365  1770.1    1390  1770.9    1415  1773.5
    1442    1777    1465  1778.6
#Mann= 5 ,-1 , 0 
       0      .1       0  838.05     .03       0   979.7    .025       0
  1105.3     .03       0  1257.9      .1       0
Bank Sta=838.05,1257.9
XS Rating Curve= 0 ,0
Exp/Cntr=0.3,0.1

Type RM Length L Ch R = 1 ,2       ,500,510,480
BEGIN DESCRIPTION:
Cross Section 2
END DESCRIPTION:
Node Last Edited Time=Mar/17/1998 12:44:38
#Sta/Elev= 49 
       0  1774.1      30  1769.5      59  1765.8      89  1762.9     116  1761.4
     150    1760     165  1759.9     185  1760.5     213  1761.5     218  1761.3
     220  1759.5     224  1759.2     232  1762.8     240  1763.4     245  1762.5
     248  1759.2     255  1759.8     260  1761.4     263  1761.4     267  1761.4
     271  1759.3     285  1758.5     298  1758.7     315  1758.6     326  1757.7
     336  1755.8     347  1755.7     358  1755.8     374  1757.3     411  1757.3
     433  1756.5     459  1756.4     482  1755.2     508  1753.5     539  1755.1
     550  1755.8     578    1758  591.81 1758.49     592  1758.4   729.2  1758.4
     742    1752     842    1752   854.8  1758.4     992  1758.4 1008.55 1766.67
    1009  1766.7    1034    1769    1065  1771.3    1100  1773.9
#Mann= 5 ,-1 , 0 
       0      .1       0  591.81     .03       0   729.2    .025       0
   854.8     .03       0 1008.55      .1       0
Bank Sta=591.81,1008.55
XS Rating Curve= 0 ,0
Exp/Cntr=0.3,0.1

Type RM Length L Ch R = 1 ,1       ,0,0,0
BEGIN DESCRIPTION:
Downstream Boundary - XSec 1
END DESCRIPTION:
Node Last Edited Time=Mar/17/1998 12:44:38
#Sta/Elev= 44 
       0    1767      23  1765.4      49  1763.5      69    1762      87  1759.1
     103  1758.1     113  1756.9     122  1756.9     127  1753.2     131  1753.1
     140  1757.7     152  1757.7     160    1755     168  1755.6     171  1755.6
     174  1755.6     177  1754.7     183  1755.9     190    1756     208  1754.9
     220  1754.7     247  1753.7     282  1753.3     321  1752.7     352  1750.9
     373  1748.6     391  1747.2     404  1748.3     434  1752.1     452  1753.6
     477  1753.7     499  1752.6     532  1753.2     572  1753.4  590.35 1753.62
     591  1753.3     644  1753.3   728.2  1753.3     741  1746.9     841  1746.9
   853.8  1753.3     991  1753.3    1006  1760.8    1006  1766.7
#Mann= 4 ,-1 , 0 
       0      .1       0  590.35     .03       0   728.2    .025       0
   853.8     .03       0
Bank Sta=590.35,1006
XS Rating Curve= 0 ,0
Exp/Cntr=0.3,0.1

Chan Stop Cuts= 1 
Chan Mod GeomFile=Modified Geometry



Use User Specified Reach Order=0
User Specified Reach Order=Critical Cr.    ,Upper Reach     
GIS Ratio Cuts To Invert=-1
GIS Limit At Bridges=0
