Geom Title=Base Geometry Data + Interpolated
Program Version=4.00
Viewing Rectangle= 0.4176 , 0.6758 , 0.9208 , 0.073 

River Reach=Critical Cr.    ,Upper Reach     
Reach XY= 6 
             0.5             0.9       0.5137421       0.7823529
       0.5010571       0.6205882       0.4841438       0.4117647
       0.4799154       0.2676471       0.4862579       0.0823529
Rch Text X Y=0.4965645,0.6955882
Reverse River Text= 0 

Type RM Length L Ch R = 1 ,12      ,100,100,100
BEGIN DESCRIPTION:
Upstream Boundary - XSec 12
END DESCRIPTION:
XS GIS Cut Line=5
0.606629524358950.912455161127590.503231197707850.90037742912508
             0.5             0.90.496768802292150.89962257087492
0.445356856540640.89361725412923
Node Last Edited Time=Sep/05/1996 10:36:50
#Sta/Elev= 77 
       0  1821.4      11  1818.2      26  1813.9      43    1812      55  1812.5
      67  1811.4      73  1812.3      88  1811.4      97  1810.5     126  1810.6
     148  1810.6     175  1811.2     195  1811.2     216  1812.5     234  1814.4
     258  1814.8     264  1812.2     269  1811.6     271  1810.5     274  1810.7
     277  1810.7     281  1810.7     288    1811     292    1811     296    1811
     298  1810.2     304  1811.4     311  1812.4     318  1813.7     321  1813.7
     325  1813.7     328    1812     337    1812     342    1811     346    1812
     358  1811.9     368  1811.1     400  1811.6     432  1811.3     466  1811.9
     494  1812.4     529  1812.4     562  1812.2     586  1812.2     609  1812.2
     628  1811.8     652  1812.3     679  1812.3     709  1813.1     720  1814.5
     726  1809.9     731  1805.5     740  1803.6     746  1804.6     748  1805.5
     754  1808.8     765  1814.2     785  1813.6     817  1814.1     852  1814.5
     890    1815     927  1815.2     960  1816.5     984    1818    1002  1818.9
    1015  1819.4    1026  1820.5    1038  1821.6    1051  1822.4    1065  1822.9
    1075  1822.9    1092  1822.8    1096  1819.8    1103  1820.1    1108  1824.9
    1116  1827.4    1123  1828.8
#Mann= 3 , 0 , 0 
       0      .1       0     720     .04       0     765      .1       0
Bank Sta=720,765
XS Rating Curve= 0 ,0
Exp/Cntr=0.3,0.1

Type RM Length L Ch R = 1 ,11.8*   ,100,100,100
XS GIS Cut Line=5
  0.6116586075390.898184870538620.505267682453510.88605848699299
0.501677462778130.885639121298460.498087243102740.88521975560393
0.448111385221380.87938218513605
Node Last Edited Time=Sep/05/1996 10:36:50
#Sta/Elev= 136 
       0  1820.9    11.3 1818.02    18.9 1816.11    26.7  1814.2    38.7 1812.92
    44.2 1812.45    54.9 1812.81    56.6 1812.85    68.9 1811.89    71.1 1812.13
    75.1  1812.6    90.5 1811.89    99.8 1811.18   106.2  1811.2   128.7 1810.92
   129.6 1810.91   152.2 1810.69   154.8  1810.7   176.4 1810.98     180 1811.04
   200.6 1811.07   206.1 1811.34   222.2 1812.13   240.7 1813.65   256.5 1813.86
   256.5 1817.72   265.4 1817.84   271.6 1815.76   276.7 1815.28   278.8  1814.4
   281.8 1814.56   284.9 1814.56     289 1814.56   296.2  1814.8   300.4  1814.8
   304.5  1814.8   306.5 1814.16   312.7 1815.12   319.9 1815.92   327.1 1816.96
   330.2 1816.96   334.3 1816.96   337.4  1815.6   346.6  1815.6   351.8  1814.8
   355.9  1815.6   368.2 1815.52   373.4  1815.2   373.5 1811.26   378.5 1810.75
   378.8 1810.74   381.5 1810.96   385.1    1811   388.7 1811.04   393.2 1810.96
   399.5 1810.72   406.7  1810.8   407.6 1810.97   411.2 1811.02   411.4 1811.02
   414.8    1811   434.6 1810.69   437.3 1810.43   441.8 1810.68   444.4 1810.66
   450.8 1810.75   455.3 1810.69   465.2 1810.85   479.3 1810.91   483.2 1810.93
   508.1 1811.25     512 1811.24     539  1811.3   544.1 1811.31   575.9 1811.21
   578.1  1811.2   602.8 1811.22   606.5 1811.22   616.4  1811.2   626.4 1811.25
     638 1811.11     646 1810.99   666.8 1811.34   670.7  1811.4   694.7 1811.42
   698.4 1811.42     710 1811.64   722.6 1811.88   729.3 1811.98   740.6 1813.04
   747.6 1808.93   752.2 1805.82   753.4 1805.02     758 1803.94   758.6 1803.85
   763.8 1803.02   769.3 1803.87   770.2 1803.93   770.9 1804.12   772.4 1804.75
     778 1807.56   778.8 1807.95   790.6 1812.94     810 1812.54     820 1812.71
   841.1 1813.08     846 1813.15   875.2 1813.62   875.3 1813.62   897.9 1814.09
   912.1 1814.29   926.2  1814.4   948.1 1814.61   956.7 1814.94   980.2 1815.77
   988.3 1816.22  1003.5 1817.01    1021 1817.74  1021.1 1817.74  1033.6 1818.14
  1044.3 1819.02  1053.9 1819.74    1056 1819.91  1068.6 1820.59  1082.1 1821.04
  1082.2 1821.04  1091.9 1821.25  1097.9 1821.35  1108.5 1821.82  1112.4 1819.61
  1113.7 1819.73  1119.2 1819.88    1124 1823.69  1131.8 1825.63    1133 1825.81
  1138.6 1826.82
#Mann= 3 , 0 , 0 
       0      .1       0   740.6     .04       0   790.6      .1       0
Bank Sta=740.6,790.6
XS Rating Curve= 0 ,0
Exp/Cntr=0.3,0.1

Type RM Length L Ch R = 1 ,11.6*   ,100,100,100
XS GIS Cut Line=5
 0.61683192559570.882532371006050.50730416719918 0.8717395448609
0.503354925556250.871278242596920.499405683913330.87081694033293
 0.45086592266730.86514711716671
Node Last Edited Time=Sep/05/1996 10:36:50
#Sta/Elev= 136 
       0  1820.4    11.6 1817.83    19.4 1816.13    27.5  1814.5    39.8 1813.24
    45.5 1812.89    56.4 1813.18    58.1  1813.2    70.8 1812.39    73.1 1812.55
    77.2  1812.9      93 1812.38   102.6 1811.85   109.1 1811.87   132.3 1811.24
   133.2 1811.22   156.5 1810.77   159.1 1810.75   181.3 1810.83     185 1810.89
   206.2 1810.95   211.8 1811.16   228.4 1811.75   247.4 1812.91   263.6 1813.07
   263.6 1820.79   272.8 1820.88   279.1 1819.32   284.4 1818.96   286.5  1818.3
   289.7 1818.42   292.9 1818.42   297.1 1818.42   304.5  1818.6   308.7  1818.6
   312.9  1818.6   315.1 1818.12   321.4 1818.84   328.8 1819.44   336.2 1820.22
   339.4 1820.22   343.6 1820.22   346.8  1819.2   356.3  1819.2   361.6  1818.6
   365.8  1819.2   378.5 1819.14   383.8  1818.9   383.8 1811.02   389.1  1810.4
   389.4 1810.38   392.2 1810.77   395.9  1810.8   399.6 1810.83   404.2 1810.59
   410.7 1810.01   418.1 1810.08     419 1810.41   422.7 1810.44   422.9 1810.44
   426.4 1810.42   446.7 1809.99   449.5  1809.5   454.1 1810.03   456.7 1810.02
   463.4 1810.09     468 1809.89   478.2 1810.03   492.7 1809.93   496.7  1809.9
   522.3 1810.09   526.3 1810.08     554  1810.2   559.3 1810.22   591.9 1810.21
   594.2  1810.2   619.5 1810.24   623.4 1810.24   633.6  1810.2   643.8 1810.29
   655.8 1810.26   663.9 1810.17   685.4 1810.45   689.3 1810.51     714 1810.54
   717.9 1810.53   729.8 1810.68   742.7 1810.84   749.6 1810.87   761.2 1811.58
   769.1 1807.96   774.4 1805.27   775.7 1804.54     781 1803.23   781.7 1803.16
   787.6 1802.44   793.5 1803.27   794.5 1803.27   795.2 1803.37   796.8 1804.01
   802.7 1806.75   803.6 1807.09   816.2 1811.68   835.1 1811.48   844.7 1811.66
   865.3 1812.06     870 1812.13   898.3 1812.74   898.5 1812.74   920.5 1813.36
   934.2 1813.58   947.9 1813.73   969.1 1814.03   977.5 1814.33  1000.3 1815.05
  1008.2 1815.42    1023 1816.02    1040 1816.58  1040.1 1816.58  1052.2 1816.88
  1062.6 1817.54  1071.9 1818.08  1073.9 1818.21  1086.2 1818.78  1099.3 1819.18
  1099.4 1819.18  1108.9  1819.6  1114.7 1819.84  1124.9 1820.84  1128.7 1819.42
  1130.1  1819.6  1135.3 1819.66    1140 1822.47  1147.6 1823.86  1148.7 1823.98
  1154.2 1824.84
#Mann= 3 , 0 , 0 
       0      .1       0   761.2     .04       0   816.2      .1       0
Bank Sta=761.2,816.2
XS Rating Curve= 0 ,0
Exp/Cntr=0.3,0.1

Type RM Length L Ch R = 1 ,11.4*   ,100,100,100
XS GIS Cut Line=5
 0.62198137634080.866873615535020.509340651944840.85742060272881
0.505032388334380.856917363895380.500724124723920.85641412506194
0.453620433817670.85091204612584
Node Last Edited Time=Sep/05/1996 10:36:50
#Sta/Elev= 136 
       0  1819.9    11.9 1817.65    19.9 1816.15    28.2  1814.8    40.8 1813.56
    46.7 1813.34    57.9 1813.55    59.7 1813.55    72.8 1812.88      75 1812.97
    79.3 1813.21    95.6 1812.87   105.3 1812.53   112.1 1812.55   135.8 1811.56
   136.8 1811.53   160.7 1810.86   163.4  1810.8   186.2 1810.69     190 1810.73
   211.7 1810.82   217.5 1810.97   234.5 1811.38   254.1 1812.16   270.7 1812.28
   270.7 1823.86   280.1 1823.92   286.7 1822.88   292.1 1822.64   294.3  1822.2
   297.5 1822.28   300.8 1822.28   305.1 1822.28   312.7  1822.4   317.1  1822.4
   321.4  1822.4   323.6 1822.08   330.1 1822.56   337.7 1822.96   345.3 1823.48
   348.6 1823.48   352.9 1823.48   356.2  1822.8   365.9  1822.8   371.4  1822.4
   375.7  1822.8   388.7 1822.76   394.2  1822.6   394.2 1810.78   399.6 1810.06
   399.9 1810.02   402.8 1810.58   406.6  1810.6   410.4 1810.62   415.1 1810.23
   421.8 1809.31   429.4 1809.35   430.3 1809.84   434.1 1809.86   434.3 1809.86
   437.9 1809.85   458.8  1809.3   461.7 1808.57   466.4 1809.39   469.1 1809.38
   475.9 1809.42   480.7  1809.1   491.1 1809.22     506 1808.94   510.1 1808.87
   536.4 1808.94   540.5 1808.92     569  1809.1   574.4 1809.12     608 1809.21
   610.2  1809.2   636.3 1809.25   640.3 1809.26   650.7  1809.2   661.3 1809.34
   673.5 1809.41   681.9 1809.36   703.9 1809.57     708 1809.61   733.4 1809.66
   737.3 1809.65   749.5 1809.72   762.8 1809.79   769.9 1809.75   781.8 1810.12
   790.7 1806.98   796.6 1804.71   798.1 1804.06     804 1802.52   804.8 1802.48
   811.4 1801.86   817.7 1802.68   818.7  1802.6   819.4 1802.61   821.1 1803.26
   827.5 1805.93   828.4 1806.24   841.8 1810.42   860.1 1810.42   869.5  1810.6
   889.4 1811.03     894 1811.12   921.5 1811.86   921.7 1811.86     943 1812.64
   956.3 1812.87   969.6 1813.05   990.2 1813.44   998.3 1813.72  1020.5 1814.32
  1028.2 1814.61  1042.4 1815.03  1058.9 1815.42    1059 1815.42  1070.9 1815.62
  1080.9 1816.06  1089.9 1816.42  1091.9 1816.52  1103.8 1816.98  1116.6 1817.32
  1116.7 1817.33  1125.8 1817.95  1131.5 1818.33  1141.4 1819.86  1145.1 1819.23
  1146.4 1819.46  1151.5 1819.44  1156.1 1821.26  1163.4 1822.09  1164.5 1822.16
  1169.8 1822.86
#Mann= 3 , 0 , 0 
       0      .1       0   781.8     .04       0   841.8      .1       0
Bank Sta=781.8,841.8
XS Rating Curve= 0 ,0
Exp/Cntr=0.3,0.1

Type RM Length L Ch R = 1 ,11.2*   ,100,100,100
XS GIS Cut Line=5
0.627108584895860.851210039980920.511377136690510.84310166059673
 0.50670985111250.84255648519383 0.50204256553450.84201130979094
 0.4563749712636 0.8366769781565
Node Last Edited Time=Sep/05/1996 10:36:50
#Sta/Elev= 136 
       0  1819.4    12.3 1817.47    20.5 1816.18      29 1815.11    41.9 1813.88
    47.9 1813.79    59.5 1813.93    61.3  1813.9    74.7 1813.37      77 1813.38
    81.4 1813.51    98.1 1813.36   108.1 1813.21     115 1813.22   139.4 1811.88
   140.4 1811.84   164.9 1810.94   167.7 1810.85   191.1 1810.54     195 1810.58
   217.3 1810.69   223.3 1810.79   240.7 1811.01   260.8 1811.41   277.9 1811.49
   277.9 1826.93   287.5 1826.96   294.2 1826.44   299.8 1826.32     302  1826.1
   305.4 1826.14   308.7 1826.14   313.2 1826.14     321  1826.2   325.4  1826.2
   329.9  1826.2   332.1 1826.04   338.8 1826.28   346.6 1826.48   354.4 1826.74
   357.7 1826.74   362.2 1826.74   365.5  1826.4   375.6  1826.4   381.1  1826.2
   385.6  1826.4     399 1826.38   404.6  1826.3   404.6 1810.54   410.1 1809.71
   410.5 1809.66   413.4 1810.39   417.3  1810.4   421.2 1810.41   426.1 1809.86
   432.9  1808.6   440.7 1808.63   441.7 1809.27   445.6 1809.28   445.8 1809.28
   449.5 1809.27   470.9  1808.6   473.8 1807.63   478.7 1808.74   481.4 1808.74
   488.5 1808.76   493.3  1808.3   504.1 1808.41   519.3 1807.96   523.6 1807.83
   550.5 1807.78   554.8 1807.76     584    1808   589.5 1808.03     624  1808.2
   626.3 1808.21   653.1 1808.27   657.1 1808.28   667.9  1808.2   678.7 1808.39
   691.3 1808.55   699.9 1808.54   722.5 1808.68   726.6 1808.71   752.7 1808.78
   756.7 1808.76   769.3 1808.76   782.9 1808.75   790.1 1808.63   802.4 1808.66
   812.2 1806.01   818.8 1804.16   820.4 1803.58     827 1801.81   827.9 1801.79
   835.2 1801.28   841.8 1802.09   842.9 1801.93   843.7 1801.86   845.5 1802.51
   852.2 1805.12   853.2 1805.39   867.4 1809.16   885.2 1809.36   894.2 1809.55
   913.6 1810.01     918 1810.11   944.7 1810.98   944.8 1810.98   965.5 1811.92
   978.4 1812.16   991.3 1812.38  1011.3 1812.86  1019.2 1813.11  1040.6  1813.6
  1048.1 1813.81  1061.9 1814.04  1077.9 1814.26    1078 1814.26  1089.5 1814.36
  1099.2 1814.58    1108 1814.76  1109.9 1814.83  1121.4 1815.17  1133.8 1815.46
  1133.9 1815.47  1142.8 1816.31  1148.2 1816.81  1157.9 1818.88  1161.4 1819.05
  1162.7 1819.33  1167.6 1819.22  1172.1 1820.04  1179.2 1820.31  1180.2 1820.33
  1185.4 1820.88
#Mann= 3 , 0 , 0 
       0      .1       0   802.4     .04       0   867.4      .1       0
Bank Sta=802.4,867.4
XS Rating Curve= 0 ,0
Exp/Cntr=0.3,0.1

Type RM Length L Ch R = 1 ,11      ,125,125,122.5
BEGIN DESCRIPTION:
Cross Section 11
END DESCRIPTION:
XS GIS Cut Line=5
0.632215037640870.835542855284350.513413621436170.82878271846464
0.508387313890630.828195606492290.503361006345090.82760849451995
0.459129499944340.82244190916332
Node Last Edited Time=Sep/05/1996 10:36:50
#Sta/Elev= 64 
       0  1818.9      21  1816.2      43  1814.2      61  1814.3      79  1813.8
     118  1813.9     143  1812.2     172  1810.9     196  1810.4     229  1810.6
     285  1810.7     285    1830     415    1830     415  1810.3     421  1809.3
     424  1810.2     428  1810.2     432  1810.2     437  1809.5     444  1807.9
     452  1807.9     453  1808.7     457  1808.7     461  1808.7     483  1807.9
     486  1806.7     491  1808.1     501  1808.1     506  1807.5     517  1807.6
     537  1806.8     569  1806.6     599  1806.9     640  1807.2     674  1807.3
     685  1807.2     709  1807.7     741  1807.8     772  1807.9     789  1807.8
     803  1807.7     823  1807.2     841  1803.6     850  1801.1     851  1801.1
     859  1800.7     866  1801.5     868  1801.1     877  1804.3     893  1807.9
     919  1808.5     942  1809.1     968  1810.1     988  1811.2    1013  1811.7
    1040  1812.5    1068    1813    1097  1813.1    1126  1813.1    1151  1813.6
    1165  1815.3    1179  1819.2    1196  1818.5    1201  1818.9
#Mann= 3 , 0 , 0 
       0      .1       0     823     .04       0     893      .1       0
Bank Sta=823,893
XS Rating Curve= 0 ,0
Exp/Cntr=0.3,0.1

Type RM Length L Ch R = 1 ,10.75*  ,125,125,122.5
XS GIS Cut Line=8
0.641591637378180.81577150339771 0.51939836565690.81062095028131
0.514221311383080.810177194956290.509044257109260.80973343963128
0.498324123295810.808814554834450.495799807353540.80865336066049
0.493275491411280.808492166486530.463504719530290.80644087733667
Node Last Edited Time=Aug/29/2007 16:33:02
#Sta/Elev= 121 
       0 1817.88     5.9 1816.95   27.34  1815.2   29.51 1814.99   43.43 1813.92
   60.05 1812.84   60.43 1812.81    75.6 1812.34   85.72 1811.81   86.86 1811.73
   102.4 1810.93  111.02 1810.53   114.2 1810.43  132.96 1810.26  152.27 1809.96
  165.82  1810.2  168.89 1810.14  185.51 1809.84  200.95 1809.46  202.13 1809.45
  219.28 1808.96  236.44 1808.65  241.71 1808.55  258.42 1808.46  270.75 1808.25
  275.43 1808.05   278.8 1807.96  298.63  1808.3  305.07 1808.12  315.25 1808.28
  318.47 1808.49  321.69 1809.02  321.81 1809.01   323.3 1808.78  325.44 1808.93
  327.58 1808.93  329.19 1808.93   330.8 1808.71  335.09 1808.66  337.23 1808.49
  345.81 1808.55  359.75 1808.56  374.23 1808.72  388.17 1808.64   400.5 1808.62
  402.75 1824.07  406.75  1827.5  453.79 1827.68   516.5 1827.78   520.5 1810.23
   523.5 1808.28  528.83 1807.46  531.49  1808.1  535.04 1808.06  537.99 1808.02
  538.59 1808.02  543.03 1807.49  549.25 1806.27  556.35 1806.26  557.24 1806.85
  558.92 1806.85  560.79 1806.86  564.34 1806.88  583.88 1806.37  586.54 1805.48
  590.98 1806.55  599.86 1806.59   604.3 1806.16  607.22  1806.2  614.06 1806.28
  631.82 1805.77  660.23 1805.75  660.35 1805.75  686.87 1805.93  718.31 1806.07
  723.27 1806.11  753.46 1806.28  763.22 1806.23  777.88 1806.53  784.53 1806.66
  812.94 1806.76  831.01 1806.82  840.47 1806.83  855.56 1806.73  867.99 1806.63
  885.75 1806.22  895.36 1804.33  896.43 1804.16  903.38 1802.51  908.18 1801.08
  911.39 1799.97  912.19 1799.77  913.17 1799.73     921 1799.12  926.35 1800.66
  926.51 1800.68  928.08 1800.46  935.16 1803.23  947.75 1806.57  971.98 1807.32
  972.09 1807.33  993.41 1807.86 1007.97 1808.38 1017.64 1808.69 1036.27 1809.54
 1041.28 1809.63 1059.57 1809.91 1070.75 1810.17 1084.73 1810.62 1100.22 1810.97
 1110.82  1811.3 1134.81 1811.77 1137.84 1811.84 1164.86 1812.39 1165.56 1812.41
 1188.16 1813.29 1189.91  1813.5  1201.2 1814.76 1214.25 1817.88 1230.09 1817.64
 1234.75 1818.03
#Mann= 3 , 0 , 0 
       0      .1       0  885.75     .04       0  947.75      .1       0
Bank Sta=885.75,947.75
XS Rating Curve= 0 ,0
Exp/Cntr=0.3,0.1

Type RM Length L Ch R = 1 ,10.5*   ,125,125,122.5
XS GIS Cut Line=8
0.650968237115480.796000151511080.525383109877640.79245918209797
0.520055308875530.792158783420280.51472750787343 0.7918583847426
 0.50369522259050.791236348763870.501099441687190.79120047256517
0.498503660783880.791164596366460.467879939116240.79043984551003
Node Last Edited Time=Aug/29/2007 16:33:02
#Sta/Elev= 121 
       0 1816.85     7.6 1815.53   35.23    1814   38.02 1813.78   55.95 1812.55
   77.37 1811.46   77.85 1811.42    97.4 1810.43  110.44 1809.33   111.9 1809.19
  131.94 1807.89  143.03 1807.25  147.13 1807.05  171.31 1806.67  196.18 1806.04
  213.64  1806.5  217.59 1806.53     239 1806.72  258.91 1806.72  260.42 1806.73
  282.52 1806.31  304.63 1806.23  311.41 1806.21  332.95 1806.28  348.84 1806.03
  354.86 1805.71   359.2 1805.51  384.76  1806.1  393.04 1805.71  406.17 1805.99
  410.31 1806.39  414.46 1807.45  414.61 1807.41  416.53 1806.95  419.29 1807.25
  422.06 1807.25  424.13 1807.25   426.2 1806.81  431.73 1806.71  434.49 1806.36
  445.54 1806.47   463.5 1806.47  482.15 1806.78  500.11 1806.59     516 1806.55
   520.5 1818.15   528.5    1825  566.86 1825.35     618 1825.55     626 1810.15
     632 1806.25  636.65 1805.62  638.98 1806.01  642.08 1805.92  644.66 1805.85
  645.19 1805.85  649.07 1805.48   654.5 1804.65   660.7 1804.61  661.48 1805.01
  662.95    1805  664.58 1805.02  667.68 1805.05  684.75 1804.83  687.08 1804.26
  690.96    1805  698.71 1805.08  702.59 1804.82  705.15 1804.86  711.12 1804.96
  726.64 1804.73  751.46  1804.9  751.57  1804.9  774.74 1804.96  802.21 1804.98
  806.54 1805.03  832.92 1805.26  841.45 1805.26  854.25 1805.52  860.07 1805.61
  884.89 1805.72  900.67 1805.78  908.94 1805.77  922.12 1805.66  932.99 1805.56
   948.5 1805.25  957.91 1803.42  958.95 1803.31  965.75 1801.42  970.45 1799.92
  973.59 1798.61  974.38 1798.44  975.33 1798.36     983 1797.55   986.9 1799.84
  987.01 1799.87  988.16 1799.83  993.32 1802.16  1002.5 1805.25 1024.95 1806.15
 1025.06 1806.15 1044.82 1806.63 1058.31 1807.05 1067.27 1807.28 1084.55 1807.89
 1089.19 1807.95 1106.14 1808.12  1116.5 1808.28 1129.45 1808.74 1143.81 1809.15
 1153.64  1809.6 1175.88 1810.44 1178.68 1810.57 1203.73 1811.67 1204.38 1811.71
 1225.32 1812.97 1226.94 1813.16 1237.41 1814.22  1249.5 1816.55 1264.18 1816.78
  1268.5 1817.15
#Mann= 3 , 0 , 0 
       0      .1       0   948.5     .04       0  1002.5      .1       0
Bank Sta=948.5,1002.5
XS Rating Curve= 0 ,0
Exp/Cntr=0.3,0.1

Type RM Length L Ch R = 1 ,10.25*  ,125,125,122.5
XS GIS Cut Line=8
0.660344836852790.776228799624440.531367854098370.77429741391464
0.525889306367980.77414037188428 0.52041075863760.77398332985393
 0.5090663218852 0.77365814269330.506399076020840.77374758446984
0.503731830156490.773837026246380.472255158702180.77443881368338
Node Last Edited Time=Aug/29/2007 16:33:02
#Sta/Elev= 121 
       0 1815.83     9.3 1814.12   43.11  1812.8   46.53 1812.57   68.48 1811.17
   94.68 1810.08   95.28 1810.04   119.2 1808.52  135.16 1806.84  136.95 1806.64
  161.47 1804.84  175.05 1803.98  180.07 1803.68  209.65 1803.08  240.09 1802.12
  261.46  1802.8   266.3 1802.91   292.5 1803.61  316.86 1803.98  318.71 1804.02
  345.76 1803.65  372.81 1803.82  381.12 1803.86  407.47 1804.09  426.92 1803.82
  434.29 1803.36   439.6 1803.05  470.88  1803.9  481.02 1803.31  497.08 1803.69
  502.16  1804.3  507.23 1805.87  507.42 1805.82  509.77 1805.13  513.15 1805.58
  516.53 1805.58  519.06 1805.58   521.6  1804.9  528.36 1804.75  531.74 1804.23
  545.27 1804.38  567.25 1804.39  590.08 1804.84  612.06 1804.55   631.5 1804.47
  638.25 1812.23  650.25  1822.5  679.93 1823.02   719.5 1823.32   731.5 1810.07
   740.5 1804.22  744.48 1803.78  746.47 1803.91  749.13 1803.78  751.33 1803.68
  751.78 1803.67   755.1 1803.46  759.74 1803.02  765.05 1802.97  765.72 1803.16
  766.97 1803.15  768.37 1803.18  771.03 1803.23  785.62  1803.3  787.62 1803.04
  790.93 1803.45  797.57 1803.57  800.89 1803.48  803.07 1803.53  808.19 1803.65
  821.46  1803.7  842.69 1804.05  842.78 1804.05   862.6 1803.99   886.1 1803.89
  889.81 1803.94  912.37 1804.23  919.67  1804.3  930.63 1804.51   935.6 1804.57
  956.83 1804.67  970.34 1804.74  977.41  1804.7  988.69 1804.59  997.98  1804.5
 1011.25 1804.28 1020.45 1802.51 1021.48 1802.45 1028.12 1800.33 1032.73 1798.76
  1035.8 1797.26 1036.56 1797.11  1037.5 1796.99    1045 1795.97 1047.45 1799.02
 1047.52 1799.05 1048.24 1799.19 1051.49 1801.08 1057.25 1803.93 1077.93 1804.97
 1078.03 1804.98 1096.23 1805.39 1108.66 1805.73 1116.91 1805.87 1132.82 1806.23
 1137.09 1806.28  1152.7 1806.33 1162.25 1806.39 1174.18 1806.86 1187.41 1807.32
 1196.45  1807.9 1216.94 1809.12 1219.52 1809.31 1242.59 1810.96 1243.19    1811
 1262.48 1812.66 1263.97 1812.83 1273.61 1813.69 1284.75 1815.22 1298.27 1815.92
 1302.25 1816.28
#Mann= 3 , 0 , 0 
       0      .1       0 1011.25     .04       0 1057.25      .1       0
Bank Sta=1011.25,1057.25
XS Rating Curve= 0 ,0
Exp/Cntr=0.3,0.1

Type RM Length L Ch R = 1 ,10      ,83.33334,85,83.33334
BEGIN DESCRIPTION:
Cross Section 10
END DESCRIPTION:
XS GIS Cut Line=5
0.66972143659009 0.75645744773780.514437421179890.75607993662273
0.511698710354490.756294696374520.508959999529090.75650945612631
0.476630378288130.75843778185673
Node Last Edited Time=Sep/05/1996 10:36:50
#Sta/Elev= 67 
       0  1814.8      11  1812.7      51  1811.6      81  1809.8     112  1808.7
     141  1806.6     162  1804.1     191  1801.8     213  1800.3     248  1799.5
     284  1798.2     315  1799.3     346  1800.5     377  1801.3     409    1801
     441  1801.4     482  1801.9     505  1801.6     520  1800.6     557  1801.7
     569  1800.9     588  1801.4     594  1802.2     600  1804.3     603  1803.3
     607  1803.9     611  1803.9     614  1803.9     617    1803     625  1802.8
     629  1802.1     645  1802.3     671  1802.3     698  1802.9     724  1802.5
     747  1802.4     756  1806.3     772    1820     793  1820.7     821  1821.1
     837    1810     849  1802.2     858  1801.5     871  1801.3     901  1802.2
     934  1803.2     970  1802.8    1007  1803.5    1040  1803.7    1074  1803.3
    1083  1801.6    1084  1801.6    1095  1797.6    1098  1795.9    1107  1794.4
    1108  1798.2    1112  1802.6    1131  1803.8    1159  1804.4    1185  1804.6
    1208  1804.5    1231  1805.5    1258  1807.8    1282  1810.3    1301  1812.5
    1320  1813.9    1336  1815.4
#Mann= 3 , 0 , 0 
       0      .1       0    1074     .04       0    1112      .1       0
Bank Sta=1074,1112
XS Rating Curve= 0 ,0
Exp/Cntr=0.3,0.1

Type RM Length L Ch R = 1 ,9.83333*,83.33334,85,83.33334
XS GIS Cut Line=5
0.670341899938890.743008518167180.513584760875520.74381933188733
0.510737943043860.744042568997750.507891125212190.74426580610816
0.474522095944870.74688248413653
Node Last Edited Time=Sep/05/1996 10:36:50
#Sta/Elev= 124 
       0 1814.55    11.1  1812.8    11.5 1812.79    20.1 1812.55    33.4 1811.49
    51.5 1810.07    51.6 1810.06    68.8 1808.63    81.8 1807.76    88.8 1807.43
   113.1 1806.68     127 1805.83   142.3 1804.94   161.4 1803.09   163.5 1802.89
   192.8 1801.01   198.7 1800.69     215 1799.75   236.9  1799.3   250.3 1799.03
   261.7 1798.68   286.7 1798.04   292.3 1798.23     318 1798.94   322.9 1799.09
   349.3 1800.02   358.2 1800.24   380.6 1800.76   392.6 1800.69   412.9 1800.52
   438.4 1800.76   445.2 1800.82   476.7  1801.1   486.6 1801.19   509.8 1800.92
     511 1800.85   524.9 1800.12   532.1 1800.31   556.9 1800.77   562.3 1800.92
   574.4 1800.31   579.8 1800.45   593.6 1800.81     598 1801.32   599.6 1801.48
   605.7 1803.15   608.7 1802.28   612.7 1802.73   616.8 1802.67   619.8 1802.63
   619.9  1802.6   622.8  1801.9   630.9 1801.77     635 1801.21   637.1 1801.24
   644.8 1801.68   648.6 1801.72   651.1 1801.75   653.4 1801.75   656.2 1801.52
   665.8 1801.75   677.4 1801.56     683 1801.57   696.4 1801.75   704.6 1801.89
   730.9 1801.51   735.5 1801.48   754.1 1801.44   763.2  1804.7   779.3 1816.13
   779.5 1816.14   800.5 1816.72   825.3 1817.03   828.8 1817.06   844.9 1807.81
     857  1801.3   859.7 1801.13   866.1 1800.71   879.2 1800.54   887.4 1800.74
   909.5 1801.32   932.3 1801.92   942.8 1802.17   970.5  1801.9   979.2 1801.76
    1003 1801.97  1016.5 1802.36  1038.3 1802.76  1049.8 1802.74  1061.2 1802.56
  1062.2 1802.55  1084.2 1802.17  1092.3 1800.07  1093.3 1799.99  1094.2 1799.61
  1098.2 1797.98  1103.3 1796.23    1106 1794.79  1114.2 1793.45  1116.1 1797.04
  1116.2 1797.17  1117.7  1798.2  1123.7  1801.7  1142.6 1802.85  1143.3 1802.88
  1161.5 1803.06  1172.2 1803.21  1185.6 1803.25  1199.1 1803.87  1199.4 1803.88
  1208.9 1803.45  1222.9 1803.66    1239 1804.51  1246.7 1804.98    1270 1807.17
  1274.6 1807.56  1292.3 1809.34  1299.4 1810.03  1309.6 1811.12    1319 1812.12
  1321.6  1812.3  1338.6 1813.37  1344.8 1813.85  1355.2 1815.08
#Mann= 3 , 0 , 0 
       0      .1       0  1084.2     .04       0  1123.7      .1       0
Bank Sta=1084.2,1123.7
XS Rating Curve= 0 ,0
Exp/Cntr=0.3,0.1

Type RM Length L Ch R = 1 ,9.66666*,83.33334,85,83.33334
XS GIS Cut Line=5
0.670939033073670.729559782121920.512732100571150.73155872715194
0.509777175733220.73179044162097 0.50682225089530.73202215609001
0.472372151565310.73472360770461
Node Last Edited Time=Sep/05/1996 10:36:50
#Sta/Elev= 124 
       0  1814.3    11.2  1812.9    11.6 1812.89    20.2 1812.64    33.7 1810.89
      52 1808.54    52.1 1808.53    69.4 1806.68    82.5 1805.71    89.7  1805.3
   114.1 1804.67   128.2 1803.96   143.7 1803.28   162.9 1801.83   165.1 1801.67
   194.6 1800.22   200.5 1799.97     217 1799.19   239.1  1798.8   252.7 1798.56
   264.2 1798.26   289.4 1797.88     295 1798.06     321 1798.58   325.9 1798.69
   352.6 1799.54   361.6 1799.75   384.1 1800.22   396.3 1800.19   416.7 1800.04
   442.6 1800.21   449.3 1800.25   481.1 1800.42   491.1 1800.48   514.6 1800.24
   515.8 1800.18   529.8 1799.63     537 1799.81   562.1 1799.99   567.5 1800.15
   579.8 1799.72   585.3 1799.86   599.1 1800.23   603.6 1800.65   605.2 1800.76
   611.4    1802   614.4 1801.26   618.5 1801.55   622.6 1801.45   625.6 1801.37
   625.7 1801.34   628.7 1800.79   636.8 1800.74   640.9 1800.31   643.1 1800.35
   650.8 1801.15   654.7 1801.18   657.2  1801.2   659.5  1801.2   662.4 1800.73
     672  1801.2   683.7 1800.82   689.4 1800.72   702.9 1800.78   711.2 1800.87
   737.7 1800.52   742.4 1800.49   761.1 1800.48   770.3  1803.1   786.6 1812.27
   786.8 1812.27     808 1812.75     833    1813   836.5 1813.03   852.8 1805.61
   865.1  1800.4   867.8 1800.26   874.2 1799.93   887.5 1799.78   895.7 1799.93
   918.1 1800.43     941 1800.96   951.7 1801.15   979.6  1800.9   988.4 1800.72
  1012.4  1800.7  1026.1 1801.22  1048.1 1801.89  1059.7 1801.78  1071.2 1801.54
  1072.2 1801.54  1094.3 1801.03  1101.7 1798.54  1102.5 1798.38  1103.3 1797.99
  1106.9 1796.32  1111.5 1794.86    1114 1793.67  1121.3  1792.5  1124.1 1795.89
  1124.4 1796.04  1126.6 1797.24  1135.3  1800.8  1154.9 1801.94  1155.6 1801.96
  1174.4 1801.95  1185.5 1802.03  1199.3    1802  1213.2 1803.14  1213.5 1803.17
  1223.3 1802.34  1237.8 1802.81  1254.4 1803.85  1262.3 1804.45  1286.4 1806.91
  1291.1 1807.32  1309.5  1809.1  1316.7 1809.76  1327.2 1810.79    1337 1811.73
  1339.7 1811.92  1357.3 1812.83  1363.7 1813.24  1374.3 1814.77
#Mann= 3 , 0 , 0 
       0      .1       0  1094.3     .04       0  1135.3      .1       0
Bank Sta=1094.3,1135.3
XS Rating Curve= 0 ,0
Exp/Cntr=0.3,0.1

Type RM Length L Ch R = 1 ,9.5*    ,83.33334,85,83.33334
XS GIS Cut Line=5
0.671541973996510.716111931796750.511879440266780.71929812241654
0.50881640842259 0.7195383142442 0.50575337657840.71977850607186
0.470222207185760.72256473127269
Node Last Edited Time=Sep/05/1996 10:36:50
#Sta/Elev= 124 
       0 1814.05    11.3    1813    11.7    1813    20.4 1812.73    34.1  1810.3
    52.4 1807.02    52.5    1807    70.1 1804.74    83.3 1803.67    90.5 1803.18
   115.2 1802.65   129.4  1802.1     145 1801.62   164.5 1800.57   166.6 1800.46
   196.4 1799.43   202.4 1799.25     219 1798.64   241.3  1798.3     255  1798.1
   266.6 1797.85   292.1 1797.73   297.8  1797.9   323.9 1798.22   328.9 1798.29
   355.8 1799.06   364.9 1799.26   387.7 1799.68     400 1799.69   420.6 1799.56
   446.7 1799.66   453.5 1799.67   485.6 1799.74   495.7 1799.77   519.3 1799.55
   520.6 1799.51   534.8 1799.15     542 1799.31   567.3 1799.22   572.8 1799.37
   585.2 1799.13   590.7 1799.27   604.7 1799.64   609.2 1799.99   610.9 1800.04
     617 1800.85   620.1 1800.23   624.2 1800.38   628.4 1800.22   631.4  1800.1
   631.6 1800.08   634.5 1799.69   642.7 1799.71   646.9 1799.42   649.1 1799.46
   656.9 1800.61   660.8 1800.63   663.3 1800.65   665.6 1800.65   668.5 1799.95
   678.3 1800.65   690.1 1800.08   695.8 1799.86   709.4 1799.81   717.8 1799.86
   744.6 1799.52   749.3 1799.49   768.2 1799.51   777.5 1801.49   793.9  1808.4
   794.1  1808.4   815.5 1808.77   840.8 1808.98   844.3 1808.99   860.8 1803.42
   873.1  1799.5   875.8  1799.4   882.4 1799.14   895.7 1799.01     904 1799.12
   926.6 1799.55   949.8 1799.99   960.5 1800.12   988.7  1799.9   997.5 1799.68