Geom Title=Base Geometry - Energy Junction
Program Version=4.00
Viewing Rectangle= 0.1318 , 0.793 , 0.9481 , 0.0139 

Junct Name=Pottsville      
Junct Desc=Division of Upper Reach and Lower Reach at Confluenece with Spruce Creek, 0 , 0 , 0 
Junct X Y & Text X Y=0.4545455,0.455516,0.3313492,0.4704301
Up River,Reach=Spring Creek    ,Upper Reach     
Up River,Reach=Spruce Creek    ,Spruce Creek    
Dn River,Reach=Spring Creek    ,Lower Reach     
Junc L&A=80,
Junc L&A=70,

River Reach=Spring Creek    ,Upper Reach     
Reach XY= 9 
       0.1666667       0.9181495       0.1885626       0.8744856
       0.2102009       0.8106996       0.2550232       0.7304527
       0.2952087       0.6625514       0.3338485        0.617284
       0.3925811       0.5473251       0.4245091       0.5037857
       0.4545455        0.455516
Rch Text X Y=0.0892857,0.6612903
Reverse River Text= 0 

Type RM Length L Ch R = 1 ,10.212  ,82,92,100
BEGIN DESCRIPTION:
Upstream River Station - River Mile 10.212
END DESCRIPTION:
XS GIS Cut Line=5
0.208083619849530.938918619005250.185344918755670.92751596543374
       0.1666667       0.91814950.147988481244330.90878303456626
0.138243323632670.90389618303561
Node Last Edited Time=Dec/19/1996 10:31:08
#Sta/Elev= 15 
       0      88      10      84      15      81      28      78      32      73
      35      69      40      67      50      64      60    63.8      65      68
      70      73      74    79.5      79      80      83      85      86      92
#Mann= 3 , 0 , 0 
       0    .035       0      28    .025       0      74    .035       0
Bank Sta=28,74
XS Rating Curve= 0 ,0
Exp/Cntr=0.3,0.1

Type RM Length L Ch R = 1 ,10.195  ,75,95,110
BEGIN DESCRIPTION:
River Mile 10.195
END DESCRIPTION:
XS GIS Cut Line=5
0.24329665702974 0.85637484090770.21980968005326 0.8484072891893
 0.19972099941280.841592550872080.179632322054230.83477781366818
0.169308375841990.83127559303474
Node Last Edited Time=Dec/19/1996 10:31:08
#Sta/Elev= 21 
       0    87.9     9.8   83.98    11.4   83.05    14.6   81.12    17.1   80.44
    27.3   77.92    31.4   73.11    32.8   71.42    34.5   69.18    35.5   68.62
    39.6   66.98    40.9   66.55    49.8   63.95    50.9   63.88      60   63.73
      65    67.9      70   72.95      74    79.4      79   79.93      83   84.97
      86    91.5
#Mann= 3 , 0 , 0 
       0    .035       0    27.3    .025       0      74    .035       0
Bank Sta=27.3,74
XS Rating Curve= 0 ,0
Exp/Cntr=0.3,0.1

Type RM Length L Ch R = 1 ,10.177  ,85,95,100
BEGIN DESCRIPTION:
River Mile 10.177
END DESCRIPTION:
XS GIS Cut Line=5
0.276314332726830.78613709645997 0.25513733693060.77430858148086
0.236379438511150.763831265219090.217621537066090.75335394726736
 0.2081037864184 0.7480377609118
Node Last Edited Time=Dec/19/1996 10:31:08
#Sta/Elev= 21 
       0    87.8     9.5   83.96    11.1    83.1    14.3   81.23    16.7   80.45
    26.7   77.83    30.8   73.22    32.2   71.61      34   69.36      35   68.63
    39.2   66.97    40.6    66.5    49.6   63.91    50.7   63.79      60   63.62
      65    67.8      70    72.9      74    79.3      79   79.87      83   84.93
      86      91
#Mann= 3 , 0 , 0 
       0    .035       0    26.7    .025       0      74    .035       0
Bank Sta=26.7,74
XS Rating Curve= 0 ,0
Exp/Cntr=0.3,0.1

Type RM Length L Ch R = 1 ,10.158  ,78,92,103
BEGIN DESCRIPTION:
River Mile 10.158
END DESCRIPTION:
XS GIS Cut Line=5
0.318598875781710.712216533728270.298271423133230.70018629500817
0.279507620688480.689081459266530.260743818243730.67797662352489
0.251361917021360.67242420565408
Node Last Edited Time=Dec/19/1996 10:31:08
#Sta/Elev= 21 
       0    87.7     9.3   83.94    10.8   83.15    13.9   81.35    16.3   80.46
      26   77.75    30.3   73.34    31.7   71.81    33.4   69.54    34.5   68.65
    38.8   66.95    40.2   66.45    49.4   63.86    50.6   63.69      60   63.55
      65    67.7      70   72.85      74    79.2      79    79.8      83    84.9
      86    90.5
#Mann= 3 , 0 , 0 
       0    .035       0      26    .025       0      74    .035       0
Bank Sta=26,74
XS Rating Curve= 0 ,0
Exp/Cntr=0.3,0.1

Type RM Length L Ch R = 1 ,10.141  ,84,90,100
BEGIN DESCRIPTION:
River Mile 10.141
END DESCRIPTION:
XS GIS Cut Line=5
0.363848493095870.651614310682150.346323543239860.63674252522392
0.329457315732740.622428371728110.312591090870710.60811422047146
0.304288290125340.60104931321507
Node Last Edited Time=Dec/19/1996 10:31:08
#Sta/Elev= 21 
       0    87.6       9   83.92    10.6    83.2    13.6   81.47    15.8   80.47
    25.3   77.67    29.7   73.45    31.1   72.01    32.9   69.72      34   68.67
    38.3   66.93    39.8    66.4    49.2   63.82    50.4   63.59      60    63.4
      65    67.6      70    72.8      74    79.1      79   79.73      83   84.87
      86      90
#Mann= 3 , 0 , 0 
       0    .035       0    25.3    .025       0      74    .035       0
Bank Sta=25.3,74
XS Rating Curve= 0 ,0
Exp/Cntr=0.3,0.1

Type RM Length L Ch R = 1 ,10.124  ,80,95,110
BEGIN DESCRIPTION:
River Mile 10.124
END DESCRIPTION:
XS GIS Cut Line=5
 0.41666418146460.588363808931230.399350227569850.57408933384704
0.382072015065040.559842918418670.364793799833540.54559650084965
0.356444300425430.53858684505265
Node Last Edited Time=Dec/19/1996 10:31:08
#Sta/Elev= 21 
       0    87.5     8.8    83.9    10.3   83.25    13.2   81.58    15.4   80.49
    24.7   77.58    29.1   73.56    30.6    72.2    32.4   69.91    33.5   68.68
    37.9   66.92    39.4   66.35      49   63.77    50.2    63.5      60   63.35
      65    67.5      70   72.75      74      79      79   79.67      83   84.83
      86    89.5
#Mann= 3 , 0 , 0 
       0    .035       0    24.7    .025       0      74    .035       0
Bank Sta=24.7,74
XS Rating Curve= 0 ,0
Exp/Cntr=0.3,0.1

Type RM Length L Ch R = 1 ,10.106  ,0,0,0
BEGIN DESCRIPTION:
Downstream River Station - River Mile 10.106
END DESCRIPTION:
XS GIS Cut Line=5
0.470487415770220.514149833145880.45209340584529 0.5024426533866
0.432946583453340.490226325539430.413799761061390.47800999769225
0.404543674250880.47225028661314
Node Last Edited Time=Dec/19/1996 10:31:08
#Sta/Elev= 15 
       0    87.4      10    83.3      15    80.5      24    77.5      30    72.4
      33    68.7      39    66.3      50    63.4      60    63.2      65    67.4
      70    72.7      74    78.9      79    79.6      83    84.8      86      89
#Mann= 3 , 0 , 0 
       0    .035       0      24    .025       0      74    .035       0
Bank Sta=24,74
XS Rating Curve= 0 ,0
Exp/Cntr=0.3,0.1

River Reach=Spruce Creek    ,Spruce Creek    
Reach XY= 8 
       0.5212121       0.9252669       0.5208655       0.8765432
       0.5224111       0.7962963       0.5131376       0.7119342
       0.4868624        0.627572       0.4760433       0.5617284
       0.4744977       0.5123457       0.4545455        0.455516
Rch Text X Y=0.6170635,0.7258065
Reverse River Text= 0 

Type RM Length L Ch R = 1 ,0.094   ,75,80,90
BEGIN DESCRIPTION:
Upstream River Station - River Mile 0.094
END DESCRIPTION:
XS GIS Cut Line=5
0.549843489483460.925063228283880.533098775311010.92518234316908
       0.5212121       0.92526690.509325420746030.92535145685897
0.497542102343170.92543527845213
Node Last Edited Time=Dec/19/1996 10:31:08
#Sta/Elev= 15 
      27   82.65    31.7   79.25    35.5   78.65    43.2   75.95    43.9   73.05
    45.3   69.35    46.8   66.65    51.6   64.25    55.4    63.8    59.3   68.05
    60.8   71.15    63.1   73.35    66.2   75.65      71   77.25    77.6   83.65
#Mann= 3 , 0 , 0 
      27    .035       0    43.2    .025       0    66.2    .035       0
Bank Sta=43.2,66.2
XS Rating Curve= 0 ,0
Exp/Cntr=0.3,0.1

Type RM Length L Ch R = 1 ,0.079   ,80,88,98
BEGIN DESCRIPTION:
River Mile 0.079
END DESCRIPTION:
XS GIS Cut Line=5
 0.55045644933070.843139736358650.533507724056150.84281329446763
0.521519603993310.842582396596570.509531483930460.84235149872551
0.497646708166890.84212259132323
Node Last Edited Time=Dec/19/1996 10:31:08
#Sta/Elev= 23 
      27   82.52    31.7   79.41    31.8   79.39    35.6   78.53    35.7    78.5
    43.4   75.76    44.1   72.94    44.1   72.85    45.5   69.24    45.5   69.18
      47   66.53      47   66.51    51.9   64.13    55.7   63.63    59.6   67.88
    59.6   67.94    61.2   70.95    61.2   71.03    63.4   73.22    66.6   75.52
    71.4   77.39    71.4   77.41    78.1   83.52
#Mann= 3 , 0 , 0 
      27    .035       0    43.4    .025       0    66.6    .035       0
Bank Sta=43.4,66.6
XS Rating Curve= 0 ,0
Exp/Cntr=0.3,0.1

Type RM Length L Ch R = 1 ,0.062   ,70,80,90
BEGIN DESCRIPTION:
River Mile 0.062
END DESCRIPTION:
XS GIS Cut Line=5
0.546556314274240.748706527569290.529603200971760.75057009777689
0.51753052937757  0.7518971856520.505457857783380.75322427352711
0.493539306968820.75453441968254
Node Last Edited Time=Dec/19/1996 10:31:08
#Sta/Elev= 23 
      27   82.39    31.8   79.56    31.9   79.54    35.7   78.41    35.7   78.37
    43.5   75.57    44.2   72.84    44.3   72.74    45.7   69.12    45.7   69.06
    47.2   66.41    47.3   66.38      52   63.99      56   63.54    59.9   67.76
      60   67.82    61.5   70.84    61.5   70.91    63.9   73.09      67   75.39
    71.8   77.54    71.9   77.57    78.6   83.39
#Mann= 3 , 0 , 0 
      27    .035       0    43.5    .025       0      67    .035       0
Bank Sta=43.5,67
XS Rating Curve= 0 ,0
Exp/Cntr=0.3,0.1

Type RM Length L Ch R = 1 ,0.047   ,85,95,100
BEGIN DESCRIPTION:
River Mile 0.047
END DESCRIPTION:
XS GIS Cut Line=5
0.528678693231790.662592379989830.512197608801450.66772552954761
0.500502945370350.671367914651190.488808285703950.67501029858222
 0.47716297361120.67863731286468
Node Last Edited Time=Dec/19/1996 10:31:08
#Sta/Elev= 23 
      27   82.26    31.8   79.72    31.9    79.7    35.8   78.28    35.8   78.25
    43.7   75.38    44.4   72.73    44.5   72.62    45.9   69.01    45.9   68.94
    47.4   66.29    47.5   66.26    52.3   63.86    56.3   63.41    60.3   67.64
    60.3   67.71    61.9   70.73    61.9   70.78    64.2   72.96    67.4   75.26
    72.3   77.69    72.4   77.72    79.2   83.26
#Mann= 3 , 0 , 0 
      27    .035       0    43.7    .025       0    67.4    .035       0
Bank Sta=43.7,67.4
XS Rating Curve= 0 ,0
Exp/Cntr=0.3,0.1

Type RM Length L Ch R = 1 ,0.029   ,75,85,98
BEGIN DESCRIPTION:
River Mile 0.029
END DESCRIPTION:
XS GIS Cut Line=5
0.507783943352830.571303987257990.490617925176050.57392741726734
0.478378247884890.575938581489530.46613857448462 0.5779497450724
 0.45400090458810.57994414793581
Node Last Edited Time=Dec/19/1996 10:31:08
#Sta/Elev= 23 
      27   82.13    31.9   79.87      32   79.85    35.8   78.16    35.9   78.12
    43.8   75.19    44.6   72.63    44.6   72.51    46.1   68.89    46.1   68.82
    47.6   66.17    47.6   66.13    52.6   63.73    56.6   63.28    60.6   67.52
    60.7    67.6    62.2   70.61    62.2   70.66    64.6   72.83    67.8   75.13
    72.8   77.85    72.8   77.88    79.7   83.13
#Mann= 3 , 0 , 0 
      27    .035       0    43.8    .025       0    67.8    .035       0
Bank Sta=43.8,67.8
XS Rating Curve= 0 ,0
Exp/Cntr=0.3,0.1

Type RM Length L Ch R = 1 ,0.013   ,0,0,0
BEGIN DESCRIPTION:
Downstream River Station - River Mile 0.013
END DESCRIPTION:
XS GIS Cut Line=5
 0.49495956565540.479669795493310.478379662498490.48549079303099
0.466529906695230.489651094734810.454680150891970.49381139643864
0.44297668984004  0.497920335877
Node Last Edited Time=Dec/19/1996 10:31:08
#Sta/Elev= 15 
      27      82      32      80      36      78      44      75    44.8    72.4
    46.3    68.7    47.8      66    52.9    63.6    56.9   63.15      61    67.4
    62.6    70.5      65    72.7    68.3      75    73.3      78    80.3      83
#Mann= 3 , 0 , 0 
      27    .035       0      44    .025       0    68.3    .035       0
Bank Sta=44,68.3
XS Rating Curve= 0 ,0
Exp/Cntr=0.3,0.1

River Reach=Spring Creek    ,Lower Reach     
Reach XY= 10 
       0.4545455        0.455516       0.4691121       0.4336574
       0.4976816       0.3971193       0.5425039       0.3539095
       0.5734158       0.3148148       0.6074189       0.2674897
       0.6228748       0.2139918       0.6491095       0.1635545
       0.6924266       0.1111111       0.7418856       0.0596708
Rch Text X Y=0.422619,0.2204301
Reverse River Text= 0 

Type RM Length L Ch R = 1 ,10.091  ,82,95,110
BEGIN DESCRIPTION:
Upstream River Station - River Mile 10.091
END DESCRIPTION:
XS GIS Cut Line=5
0.524967695586180.465621545220350.502698109356950.44918544831746
0.47365121184818   0.427852239860.444604317311030.40651903354976
0.432618092940910.39751346190835
Node Last Edited Time=Dec/19/1996 10:31:08
#Sta/Elev= 15 
       0    87.3      12    83.2      18    80.4    28.8    77.4    37.8    72.3
    42.3    68.6    51.3    66.2    67.8    63.3    82.8   63.12    90.3    67.3
    97.8    72.6   103.8    78.8   110.3    79.5   115.5    84.7   119.4    88.9
#Mann= 3 , 0 , 0 
       0    .035       0    28.8    .025       0   103.8    .035       0
Bank Sta=28.8,103.8
XS Rating Curve= 0 ,0
Exp/Cntr=0.3,0.1

Type RM Length L Ch R = 1 ,10.073  ,85,100,120
BEGIN DESCRIPTION:
River Mile 10.073
END DESCRIPTION:
XS GIS Cut Line=5
0.581334955222970.404351497100740.561855379843250.38578655545529
0.535324986067760.360830149659420.508794592292270.33587374386354
0.49814901212324 0.3253171573838
Node Last Edited Time=Dec/19/1996 10:31:08
#Sta/Elev= 23 
       0    87.2    11.7   83.21    13.5   82.42    17.5   80.52    20.2   79.69
      28    77.3    36.7   72.28    38.9   70.49      41   68.96      49    66.7
    49.6   66.53    59.8    64.5    65.4   63.55    79.8   63.06    88.4   66.62
    89.8   67.37    94.8   70.38    96.9    71.9    99.8   74.59   103.8   78.72
   110.3   79.42   115.5   84.62   119.4   88.82
#Mann= 3 , 0 , 0 
       0    .035       0      28    .025       0   103.8    .035       0
Bank Sta=28,103.8
XS Rating Curve= 0 ,0
Exp/Cntr=0.3,0.1

Type RM Length L Ch R = 1 ,10.054  ,90,100,100
BEGIN DESCRIPTION:
River Mile 10.054
END DESCRIPTION:
XS GIS Cut Line=5
0.647547834164930.319440262067640.625830732794220.30471866540116
0.594593406923770.285340064889720.563356084321860.26596146606397
0.551180643154180.25721340755868
Node Last Edited Time=Dec/19/1996 10:31:08
#Sta/Elev= 23 
       0    87.1    11.4   83.22    13.1   82.49      17   80.64    19.6   79.74
    27.3    77.2    35.5   72.27    37.7   70.62    39.7   69.31    47.3   67.03
    47.9   66.85    57.7   64.67      63   63.79    76.8   62.99    86.4   65.95
    88.1   66.55    93.7   69.49    96.1   71.21    99.3   73.99   103.8   78.64
   110.3   79.34   115.5   84.54   119.4   88.74
#Mann= 3 , 0 , 0 
       0    .035       0    27.3    .025       0   103.8    .035       0
Bank Sta=27.3,103.8
XS Rating Curve= 0 ,0
Exp/Cntr=0.3,0.1

Type RM Length L Ch R = 1 ,10.035  ,80,90,100
BEGIN DESCRIPTION:
River Mile 10.035
END DESCRIPTION:
XS GIS Cut Line=5
0.688055544135330.22424331532814 0.66514949345450.21311144353732
0.631383394471850.19763367385581 0.59761729548920.18215590417429
0.584316638788350.17523763657572
Node Last Edited Time=Dec/19/1996 10:31:08
#Sta/Elev= 23 
       0      87    11.1   83.22    12.7   82.56    16.6   80.76    19.1    79.8
    26.5    77.1    34.4   72.25    36.5   70.75    38.3   69.67    45.6   67.35
    46.2   67.18    55.6   64.85    60.7   64.04    73.8   62.93    84.5   65.27
    86.3   65.73    92.6   68.59    95.2   70.51    98.8   73.39   103.8   78.56
   110.3   79.26   115.5   84.46   119.4   88.66
#Mann= 3 , 0 , 0 
       0    .035       0    26.5    .025       0   103.8    .035       0
Bank Sta=26.5,103.8
XS Rating Curve= 0 ,0
Exp/Cntr=0.3,0.1

Type RM Length L Ch R = 1 ,10.018  ,85,95,105
BEGIN DESCRIPTION:
River Mile 10.018
END DESCRIPTION:
XS GIS Cut Line=5
  0.7272012408160.166789841798450.708201213196540.15085901483227
0.679728746478350.126484211574360.651256282497310.10210941075646
0.639697153337840.09256182319132
Node Last Edited Time=Dec/19/1996 10:31:08
#Sta/Elev= 23 
       0    86.9    10.7   83.23    12.4   82.63    16.1   80.89    18.5   79.85
    25.8      77    33.3   72.24    35.2   70.87      37   70.03      44   67.68
    44.5   67.51    53.4   65.02    58.3   64.28    70.8   62.86    82.6   64.59
    84.6   64.92    91.4   67.69    94.4   69.81    98.3    72.8   103.8   78.48
   110.3   79.18   115.5   84.38   119.4   88.58
#Mann= 3 , 0 , 0 
       0    .035       0    25.8    .025       0   103.8    .035       0
Bank Sta=25.8,103.8
XS Rating Curve= 0 ,0
Exp/Cntr=0.3,0.1

Type RM Length L Ch R = 1 ,10.000  ,0,0,0
BEGIN DESCRIPTION:
Downstream River Station - River Mile 10.000
END DESCRIPTION:
XS GIS Cut Line=5
0.786500201405570.102567003383690.769180868972150.08591475091191
       0.7418856       0.05967080.714590331027850.03342684908809
0.703783068646480.02303584456207
Node Last Edited Time=Dec/19/1996 10:31:08
#Sta/Elev= 15 
       0    86.8      12    82.7      18    79.9      25    76.9      34      71
    42.3      68    51.3    65.2    67.8    62.8    82.8    64.1    90.3    66.8
    97.8    72.2   103.8    78.4   110.3    79.1   115.5    84.3   119.4    88.5
#Mann= 3 , 0 , 0 
       0    .035       0      25    .025       0   103.8    .035       0
Bank Sta=25,103.8
XS Rating Curve= 0 ,0
Exp/Cntr=0.3,0.1

Chan Stop Cuts=-1 



Use User Specified Reach Order=0
User Specified Reach Order=Spruce Creek    ,Spruce Creek    
User Specified Reach Order=Spring Creek    ,Upper Reach     
User Specified Reach Order=Spring Creek    ,Lower Reach     
GIS Ratio Cuts To Invert=-1
