Geom Title=Looped Geometry
Program Version=4.01
Viewing Rectangle= 0.1383 , 0.6402 , 1.0756 , 0.0505 

Junct Name=Tusseyville     
Junct Desc=Spruce Creek Split, 0 , 0 , 0 
Junct X Y & Text X Y=0.367736,0.7960988,0.251126,0.8152238
Up River,Reach=Spruce Creek    ,Upper Spruce    
Dn River,Reach=Spruce Creek    ,Middle Spruce   
Dn River,Reach=Bear Run        ,Bear Run        
Junc L&A=80,
Junc L&A=70,

Junct Name=Coburn          
Junct Desc=Confluence of Bear Run and Middle Spruce, 0 , 0 , 0 
Junct X Y & Text X Y=0.3702929,0.300885,0.3044574,0.2916549
Up River,Reach=Bear Run        ,Bear Run        
Up River,Reach=Spruce Creek    ,Middle Spruce   
Dn River,Reach=Spruce Creek    ,Lower Spruce    
Junc L&A=70,
Junc L&A=85,

River Reach=Spruce Creek    ,Upper Spruce    
Reach XY= 6 
       0.3646946        1.051764       0.3730696       1.0186996
       0.3862304       0.9604432       0.3874268       0.9116338
       0.3766589       0.8518029        0.367736       0.7960988
Rch Text X Y=0.2029101,0.9790214
Reverse River Text= 0 

Type RM Length L Ch R = 1 ,2500    ,123,115,121
BEGIN DESCRIPTION:
Upstream River Station
END DESCRIPTION:
XS GIS Cut Line=5
0.419322466371251.065506741658450.379401968092061.05548928180675
       0.3646946        1.0517640.34998723579058 1.0480387191767
0.336603021074951.04464858361569
Node Last Edited Time=Feb/09/1998 16:36:30
#Sta/Elev= 18 
       0   29.15      15   26.95    21.7   25.15      33   25.55    42.3   26.75
    55.3   27.15    66.1   26.25    78.4   24.95    84.5   23.15    95.7   21.15
   113.5   20.45   120.3   21.35  124.57   23.15   131.1   23.95   136.2   25.45
   139.7   26.15   150.9   27.35   162.5   28.95
#Mann= 3 , 0 , 0 
       0     .08       0    78.4     .04       0   136.2     .08       0
Levee=-1,55.35,27.15,0,,,,
Bank Sta=78.4,136.2
XS Rating Curve= 0 ,0
Exp/Cntr=0.3,0.1

Type RM Length L Ch R = 1 ,2385    ,135,115,110
BEGIN DESCRIPTION:
2385
END DESCRIPTION:
XS GIS Cut Line=5
0.427749858431851.004173679885140.394577657964910.99663291300776
0.378857040533660.993081442235630.363136423102410.98952997146351
0.350385818643890.98664946125077
Node Last Edited Time=Feb/09/1998 16:36:30
#Sta/Elev= 28 
       0   28.41    12.4   26.88      18   25.58    21.6   25.73    27.3   25.86
      35   26.69    35.1   26.69    45.7   26.68    45.9   26.66    54.7   25.92
    64.8   24.86    70.6   23.14    71.1   23.05    79.5    21.3    81.4   21.01
    98.4   20.22   106.6   20.95   107.6   21.22   111.9   22.34   114.6   22.57
   119.9   23.42   120.4   23.56   126.2   25.09   129.5   25.67   136.9   26.41
   140.2   26.91   142.8   27.38   151.1   28.56
#Mann= 3 , 0 , 0 
       0     .08       0    64.8     .04       0   126.2     .08       0
Levee=-1,35,26.7,0,,,,
Bank Sta=64.8,126.2
XS Rating Curve= 0 ,0
Exp/Cntr=0.3,0.1

Type RM Length L Ch R = 1 ,2270    ,142,125,120
BEGIN DESCRIPTION:
2270
END DESCRIPTION:
XS GIS Cut Line=5
 0.43079857557720.934115374173510.403920230802380.93395713899893
 0.38688984986660.933539695888550.369859470932860.93312225282725
0.357421255319690.93281737136672
Node Last Edited Time=Feb/09/1998 16:36:30
#Sta/Elev= 28 
       0   27.67     9.8    26.8    14.2   26.01    17.1   26.15    21.5   26.17
    27.6   26.63    27.7   26.63    36.1    26.2    36.3   26.18    43.2   25.59
    51.2   24.77    56.8   23.14    57.2   23.03    65.2    21.1      67   20.87
    83.2   19.99      93   20.56    94.2   20.75    99.2   21.54   102.4   21.71
   108.6   22.88   109.3   23.04   116.1   24.73   119.2   25.18   126.3   25.84
   129.4   26.47   131.9   27.02   139.8   28.18
#Mann= 3 , 0 , 0 
       0     .08       0    51.2     .04       0   116.1     .08       0
Levee=-1,27.6,26.65,0,,,,
Bank Sta=51.2,116.1
XS Rating Curve= 0 ,0
Exp/Cntr=0.3,0.1

Type RM Length L Ch R = 1 ,2145    ,140,105,110
BEGIN DESCRIPTION:
2145
END DESCRIPTION:
XS GIS Cut Line=5
0.416813863682340.861967816020410.397382343315390.86543899560082
0.37968466734832 0.86861531315770.361986991381260.87179163071459
0.350465121724670.87386524719495
Node Last Edited Time=Feb/09/1998 16:36:30
#Sta/Elev= 27 
       0   26.94     7.2   26.73    10.4   26.44    12.5   26.58    15.8   26.48
    20.3   26.57    26.5   25.73    26.6   25.71    31.7   25.27    37.6   24.69
    42.9   23.13    43.3   23.01    50.9    20.9    52.6   20.72      68   19.75
    79.3   20.16    80.7   20.27    86.5   20.73    90.2   20.86    97.4   22.35
    98.1   22.52   106.1   24.36     109    24.7   115.6   25.27   118.6   26.02
   120.9   26.66   128.4   27.79
#Mann= 3 , 0 , 0 
       0     .08       0    37.6     .04       0   106.1     .08       0
Bank Sta=37.6,106.1
XS Rating Curve= 0 ,0
Exp/Cntr=0.3,0.1

Type RM Length L Ch R = 1 ,2040    ,0,0,0
BEGIN DESCRIPTION:
Downstream River Station
END DESCRIPTION:
XS GIS Cut Line=5
0.401744310353640.809259640317360.389303466255030.81125246324794
 0.37064220010710.814241697643810.351980933959180.81723093203969
0.341095195372890.81897465210395
Node Last Edited Time=Feb/09/1998 16:36:30
#Sta/Elev= 15 
       0    26.2       8      27      13    26.5      17   25.23      24    24.6
    29.4      23    36.6    20.7    52.8   19.52    67.2    19.8      78      20
      87      22      96      24     105    24.7     110    26.3     117    27.4
#Mann= 3 , 0 , 0 
       0     .08       0      24     .04       0      96     .08       0
Bank Sta=24,96
XS Rating Curve= 0 ,0
Exp/Cntr=0.3,0.1

River Reach=Bear Run        ,Bear Run        
Reach XY= 20 
        0.367736       0.7960988       0.3899002       0.7827314
       0.4260629       0.7545115       0.4466527       0.7359882
       0.4738494        0.699115       0.4874477       0.6519174
       0.5064213       0.6291647       0.5282427       0.5899705
       0.5271967       0.5516224       0.5313808       0.5147493
       0.5355649       0.4823009        0.542887       0.4631268
       0.5449791       0.4424779       0.5355649       0.4188791
       0.5259345       0.4000116       0.5008297       0.3823127
       0.4715408        0.361664       0.4351464       0.3554572
       0.4016736       0.3421829       0.3702929        0.300885
Rch Text X Y=0.6041181,0.5603843
Reverse River Text= 0 

Type RM Length L Ch R = 1 ,1470    ,180,170,265
BEGIN DESCRIPTION:
Upstream River Station
END DESCRIPTION:
XS GIS Cut Line=5
0.385534665592250.796058184240260.383733015993070.79307090757868
0.380805335394410.788216583003620.377877654795760.78336225842855
0.366543528980380.76576541028127
Node Last Edited Time=Feb/09/1998 16:36:30
#Sta/Elev= 17 
       0      26       4      24       8    23.8    10.4    22.5      12    20.8
      16   19.35    20.1    19.5      24   19.37    27.2    20.8      30    21.7
      34    22.4      40    22.6      47    23.3      52      24      61    24.3
    67.9    25.8      82    26.3
#Mann= 3 , 0 , 0 
       0     .08       0       8     .04       0      34     .08       0
Bank Sta=8,34
XS Rating Curve= 0 ,0
Exp/Cntr=0.3,0.1

Type RM Length L Ch R = 1 ,1300    ,185,180,280
BEGIN DESCRIPTION:
1800
END DESCRIPTION:
XS GIS Cut Line=5
0.446103299882780.750413229011360.443128504813190.74710655927521
0.439176693586330.742713875315070.43522488263761 0.7383211916641
0.425635883541650.72824388032232
Node Last Edited Time=Feb/09/1998 16:36:30
#Sta/Elev= 27 
       0   25.77     1.5   25.12       2   24.82     3.3   24.26     5.1   23.66
       7   23.61    10.2   23.52    11.2   23.08    12.2   22.57    13.1   22.16
    14.8   20.75    15.1   20.56    17.4   19.94      20   19.19      24   19.33
    27.5   19.23    27.7   19.24    30.8   20.65    31.6   20.92    33.5   21.54
    37.3   22.26      43   22.46    49.6   23.11    54.3   23.75    56.3   23.82
    62.7   24.14    69.2   25.75
#Mann= 3 , 0 , 0 
       0     .08       0    10.2     .04       0    37.3     .08       0
Bank Sta=10.2,37.3
XS Rating Curve= 0 ,0
Exp/Cntr=0.3,0.1

Type RM Length L Ch R = 1 ,1120    ,172,158,274
BEGIN DESCRIPTION:
1620
END DESCRIPTION:
XS GIS Cut Line=5
0.491215149466280.680580779768060.486061201862230.67909585414251
0.480111116182590.677381549811410.474161030103340.67566724536518
0.46167423073043 0.6720696208268
Node Last Edited Time=Feb/09/1998 16:36:30
#Sta/Elev= 27 
       0   25.53     1.8   24.81     2.5   24.44       4   23.83     6.2   23.32
     8.5    23.3    12.3   23.24    13.5   22.79    14.7   22.23    15.8   21.81
    17.9   20.49    18.2   20.33    20.9   19.74      24   18.95    27.8   19.17
    31.2   19.09    31.4   19.11    34.4   20.51    35.1   20.78      37   21.37
    40.7   22.11      46   22.31    52.1   22.91    56.5   23.49    58.4   23.57
    64.4   23.98    70.5   25.38
#Mann= 3 , 0 , 0 
       0     .08       0    12.3     .04       0    40.7     .08       0
Bank Sta=12.3,40.7
XS Rating Curve= 0 ,0
Exp/Cntr=0.3,0.1

Type RM Length L Ch R = 1 ,962     ,160,185,239
BEGIN DESCRIPTION:
1462
END DESCRIPTION:
XS GIS Cut Line=5
0.523778521204680.624209638694020.518254082332830.62113390324341
0.512634394514920.61800513787124  0.5070147066970.61487637249907
0.496423022731720.60897944457402
Node Last Edited Time=Feb/09/1998 16:36:30
#Sta/Elev= 27 
       0    25.3     2.1   24.51     2.9   24.07     4.7   23.39     7.3   22.98
      10   22.98    14.5   22.97    15.9   22.51    17.3   21.88    18.6   21.47
    20.9   20.24    21.3   20.09    24.4   19.55      28   18.91    31.7      19
      35   18.95    35.1   18.97      38   20.36    38.7   20.64    40.5   21.21
      44   21.97    48.9   22.17    54.7   22.72    58.8   23.24    60.5   23.31
    66.1   23.82    71.8   25.17
#Mann= 3 , 0 , 0 
       0     .08       0    14.5     .04       0      44     .08       0
Bank Sta=14.5,44
XS Rating Curve= 0 ,0
Exp/Cntr=0.3,0.1

Type RM Length L Ch R = 1 ,777     ,165,185,252
BEGIN DESCRIPTION:
1277
END DESCRIPTION:
XS GIS Cut Line=5
0.542236084721630.543040484550340.535000237277560.54221941148378
0.528349322921050.541464712509210.52169841021739 0.5407100137222
0.510555457790310.53951484075644
Node Last Edited Time=Feb/09/1998 16:36:30
#Sta/Elev= 27 
       0   25.07     2.4   24.21     3.3   23.69     5.5   22.96     8.3   22.64
    11.5   22.67    16.7   22.69    18.2   22.22    19.8   21.53    21.3   21.13
      24   19.98    24.4   19.85    27.9   19.36      32   18.71    35.5   18.84
    38.7   18.85    38.9   18.84    41.6   20.21    42.3    20.5      44   21.05
    47.4   21.82    51.9   22.03    57.2   22.52      61   22.99    62.6   23.06
    67.9   23.65    73.1   24.96
#Mann= 3 , 0 , 0 
       0     .08       0    16.7     .04       0    47.4     .08       0
Bank Sta=16.7,47.4
XS Rating Curve= 0 ,0
Exp/Cntr=0.3,0.1

Type RM Length L Ch R = 1 ,592     ,160,180,247
BEGIN DESCRIPTION:
1092
END DESCRIPTION:
XS GIS Cut Line=5
0.557718600707730.465942663619020.549725546604360.46412096179468
0.542941784440030.46258608090259 0.5361580222757 0.4610512000105
0.526085864081530.45873637358236
Node Last Edited Time=Feb/09/1998 16:36:30
#Sta/Elev= 27 
       0   24.83     2.7   23.91     3.8   23.31     6.2   22.53     9.4    22.3
      13   22.35    18.8   22.41    20.6   21.94    22.3   21.19      24   20.78
      27   19.73    27.4   19.62    31.4   19.17    36.1   18.54    39.4   18.67
    42.4   18.67    42.6   18.71    45.2   20.06    45.8   20.36    47.5   20.89
    50.7   21.68    54.9   21.88    59.8   22.33    63.3   22.74    64.8   22.81
    69.6   23.49    74.4   24.74
#Mann= 3 , 0 , 0 
       0     .08       0    18.8     .04       0    50.7     .08       0
Levee=-1,18.8,22.41,0,,,,
Bank Sta=18.8,50.7
XS Rating Curve= 0 ,0
Exp/Cntr=0.3,0.1

Type RM Length L Ch R = 1 ,412     ,170,187,220
BEGIN DESCRIPTION:
912
END DESCRIPTION:
XS GIS Cut Line=5
0.525814987643490.379892974871650.520538496383140.38737735287213
0.516380118938710.393275755262510.512221741494270.39917415765289
0.505087551894670.40908288800102
Node Last Edited Time=Feb/09/1998 16:36:30
#Sta/Elev= 28 
       0    24.8     3.1   23.61     4.2   22.93     6.9    22.1    10.5   21.96
    14.5   22.04      21   22.13    22.9   21.65    24.9   20.84    26.7   20.44
    30.1   19.47    30.5   19.38      35   18.98    40.1   18.32    43.3    18.5
    46.1   18.53    46.3   18.58    48.8   19.92    49.4   20.22      51   20.72
    54.1   21.53    57.9   21.74    62.4   22.13    65.6   22.48    66.9   22.56
    71.3   23.33    75.7   24.53    82.1    25.3
#Mann= 3 , 0 , 0 
       0     .08       0      21     .04       0    54.1     .08       0
Levee=-1,21,22.13,0,,,,
Bank Sta=21,54.1
XS Rating Curve= 0 ,0
Exp/Cntr=0.3,0.1

Type RM Length L Ch R = 1 ,225     ,185,190,200
BEGIN DESCRIPTION:
725
END DESCRIPTION:
XS GIS Cut Line=5
0.448193051127590.339855068692050.446492276860060.34982778555128
0.445238688803560.35717836639225 0.44398510102670.36452894559344
0.442119967844550.37513702827213
Node Last Edited Time=Feb/09/1998 16:36:30
#Sta/Elev= 28 
       0   24.73     3.4    23.3     4.6   22.56     7.6   21.66    11.6   21.62
      16   21.73    23.2   21.86    25.3   21.37    27.4   20.49    29.4    20.1
    33.1   19.21    33.6   19.14    38.5   18.78    44.1   18.22    47.1   18.34
    49.9   18.38      50   18.45    52.4   19.77      53   20.08    54.4   20.56
    57.4   21.39    60.9    21.6    64.9   21.94    67.8   22.23      69    22.3
      73   23.17      77   24.32    82.1    25.2
#Mann= 3 , 0 , 0 
       0     .08       0    23.2     .04       0    57.4     .08       0
Levee=-1,23.2,21.86,0,,,,
Bank Sta=23.2,57.4
XS Rating Curve= 0 ,0
Exp/Cntr=0.3,0.1

Type RM Length L Ch R = 1 ,35      ,0,0,0
BEGIN DESCRIPTION:
Downstream River Station
END DESCRIPTION:
XS GIS Cut Line=5
0.394473801911740.301679378356110.385689605634770.30835415426744
0.379526779997690.313037050551990.373363954360610.31771994683653
0.365829682753490.32344495263638
Node Last Edited Time=Feb/09/1998 16:36:30
#Sta/Elev= 28 
       0   24.62     3.7      23     5.1   22.18     8.3   21.23    12.7   21.28
    17.5   21.41    25.3   21.58    27.6   21.08      30   20.15    32.2   19.75
    36.2   18.96    36.7   18.91      42   18.59    48.1   18.06      51   18.17
    53.6   18.24    53.7   18.31      56   19.62    56.5   19.94    57.9    20.4
    60.8   21.24    63.9   21.45    67.5   21.75    70.1   21.98    71.2   22.05
    74.7   23.01    78.3   24.11    82.5   24.82
#Mann= 3 , 0 , 0 
       0     .08       0    25.3     .04       0    60.8     .08       0
Levee=-1,25.3,21.58,0,,,,
Bank Sta=25.3,60.8
XS Rating Curve= 0 ,0
Exp/Cntr=0.3,0.1

River Reach=Spruce Creek    ,Middle Spruce   
Reach XY= 20 
        0.367736       0.7960988       0.3560706       0.7634231
       0.3410042       0.7359882       0.2960251       0.6843658
       0.2761506        0.660767       0.2447699       0.6061947
       0.2079608       0.5871942       0.1854162       0.5543869
       0.1746862       0.5162242       0.1725941       0.4823009
       0.1767782       0.4572271       0.2008368       0.4380531
       0.2165272       0.4085546       0.2364017       0.3879056
       0.2447699        0.379056       0.2667364       0.3687316
       0.2887029       0.3510324       0.3158996       0.3318584
        0.338812         0.31701       0.3702929        0.300885
Rch Text X Y=-0.0220663,0.5628762
Reverse River Text= 0 

Type RM Length L Ch R = 1 ,1960    ,166,130,116
BEGIN DESCRIPTION:
Upstream River Station
END DESCRIPTION:
XS GIS Cut Line=5
0.390052652894070.754551580940670.37108685801356 0.7626371117324
0.357769845184480.768182818987290.34445283006273  0.773728527273
0.333840629411770.77805814682149
Node Last Edited Time=Feb/09/1998 16:36:30
#Sta/Elev= 34 
       3    26.4     3.3   24.62       4   25.22     6.2   24.52     7.7   24.72
      10   24.52    13.5   24.62    16.5   24.02      20   24.32    23.6   24.32
    27.4   24.22    31.3   24.71    34.3   25.15    37.5   23.92   43.75    22.2
    48.4   21.62  51.025   20.78    55.9    20.4    59.8   19.82   62.05   19.32
   63.25   19.32    64.3   19.72   64.75   19.62   66.55   20.62    67.9   22.32
    69.1   22.82   74.05   23.52    78.1   24.32    81.4   24.32    84.5   24.92
    87.5   25.62    90.4   26.62    93.1   27.82    95.5   29.22
#Mann= 3 , 0 , 0 
       3     .08       0    34.3     .04       0    78.1     .08       0
Levee=-1,34.3,25.15,0,,,,
Bank Sta=34.3,78.1
XS Rating Curve= 0 ,0
Exp/Cntr=0.3,0.1

Type RM Length L Ch R = 1 ,1830    ,175,130,110
BEGIN DESCRIPTION:
1830
END DESCRIPTION:
XS GIS Cut Line=5
0.334436907540190.676360527671310.319334709675520.68950993612142
0.308632299099420.698835050713990.297929888523310.70816016530657
0.287997256546510.71681456430677
Node Last Edited Time=Feb/09/1998 16:36:30
#Sta/Elev= 56 
     2.6   26.49     2.9   24.94     3.5   25.42     5.7   24.69       7   24.77
     7.1   24.78     8.7   24.51     9.4   24.44    12.6   24.44    12.8   24.45
    15.7   23.94    17.9   24.11    19.1   24.21    22.6   24.21    23.6   24.19
    26.3   24.14    30.1   24.57      33   24.96      36   23.58    36.6   23.37
    40.4   22.29    41.9   21.88    43.8   21.63    46.3   21.31    48.8   20.54
    50.1   20.43    50.9    20.3    53.4    20.1    57.1   19.58    59.2   19.14
    60.2   19.14    61.3    19.5    61.8   19.42    63.7    20.3    64.6   21.21
    65.2   21.77    66.5   22.22    66.7   22.25    68.6   22.48    68.7    22.5
    70.4    22.8    70.7   22.89    71.7   23.07    73.8   23.52    76.1   24.05
    78.1    24.1    79.5   24.13    79.9   24.13    80.1   24.17    82.1   24.45
    83.5   24.67    84.1   24.79    86.9   25.34    90.3   26.27    93.4   27.36
    96.1   28.62
#Mann= 3 , 0 , 0 
     2.6     .08       0      33     .04       0    76.1     .08       0
Levee=-1,33,24.5,0,,,,
Bank Sta=33,76.1
XS Rating Curve= 0 ,0
Exp/Cntr=0.3,0.1

Type RM Length L Ch R = 1 ,1700    ,182,150,105
BEGIN DESCRIPTION:
1700
END DESCRIPTION:
XS GIS Cut Line=5
0.287390226610420.613252371923250.270487846754730.62297174441694
0.25841064118394 0.62991649779650.246333433434860.63686125242864
 0.23331403137010.64434779689119
Node Last Edited Time=Feb/09/1998 16:36:30
#Sta/Elev= 56 
     2.1   26.57     2.4   25.27     3.1   25.62     5.2   24.87     6.5   24.85
     6.6   24.83     8.1   24.44     8.8   24.37    11.8   24.27    12.1   24.27
    14.9   23.86      17   24.01    18.2   24.09    21.6   24.11    22.6   24.09
    25.2   24.06    28.9   24.43    31.7   24.76    34.6   23.24    35.1   22.99
    38.6   21.94    40.1   21.56    41.9   21.32    44.2      21    46.6   20.31
    47.8   20.18    48.5   19.99    50.9   19.81    54.3   19.35    56.3   18.96
    57.2   18.96    58.4   19.27    58.9   19.21    60.9   19.98    61.9   20.75
    62.5   21.23    63.8   21.61    64.1   21.65    66.1   21.85    66.2   21.89
      68   22.27    68.3    22.4    69.4   22.63    71.7   23.14      74   23.79
    76.3   23.87    77.9   23.94    78.4   23.94    78.6   23.97    80.8   24.21
    82.4   24.42    83.1   24.53    86.3   25.06    90.1   25.91    93.6    26.9
    96.8   28.01
#Mann= 3 , 0 , 0 
     2.1     .08       0    31.7     .04       0      74     .08       0
Levee=-1,31.7,24.7,0,,,,
Bank Sta=31.7,74
XS Rating Curve= 0 ,0
Exp/Cntr=0.3,0.1

Type RM Length L Ch R = 1 ,1550    ,185,145,128
BEGIN DESCRIPTION:
1550
END DESCRIPTION:
XS GIS Cut Line=5
0.218971689630110.545774505398920.202599292308090.55522622680729
 0.19096031637380.562454796042070.179321341584080.56968336473844
0.164924718004420.57820776577458
Node Last Edited Time=Feb/09/1998 16:36:30
#Sta/Elev= 56 
     1.7   26.66       2   25.59     2.6   25.81     4.7   25.04     5.9   24.92
       6   24.89     7.5   24.37     8.1   24.29    11.1   24.09    11.4    24.1
    14.1   23.78    16.1   23.91    17.3   23.98    20.6      24    21.6      24
    24.1   23.98    27.7   24.29    30.4   24.57    33.1   22.89    33.6   22.61
    36.9   21.58    38.3   21.24      40   21.01    42.1   20.68    44.3   20.07
    45.5   19.94    46.2   19.68    48.4   19.51    51.6   19.11    53.5   18.78
    54.1   18.78    55.4   19.05    55.9   19.01    58.1   19.66    59.1   20.29
    59.7   20.68    61.2   21.01    61.5   21.04    63.6   21.22    63.7   21.27
    65.6   21.74      66   21.91    67.1   22.18    69.5   22.76      72   23.52
    74.5   23.65    76.4   23.75    76.8   23.75    77.2   23.78    79.6   23.97
    81.4   24.17    82.2   24.28    85.7   24.78      90   25.56    93.9   26.44
    97.4   27.41
#Mann= 3 , 0 , 0 
     1.7     .08       0    30.4     .04       0      72     .08       0
Levee=-1,30.4,24.6,0,,,,
Bank Sta=30.4,72
XS Rating Curve= 0 ,0
Exp/Cntr=0.3,0.1

Type RM Length L Ch R = 1 ,1405    ,142,105,110
BEGIN DESCRIPTION:
1405
END DESCRIPTION:
XS GIS Cut Line=5
0.205788409741840.47649835667132 0.18785717369670.47247160620789
0.174584474489050.470373304611850.161311772889620.46827500205322
0.143257234891480.46419614085891
Node Last Edited Time=Feb/09/1998 16:36:30
#Sta/Elev= 56 
     1.3   26.74     1.6   25.91     2.2   26.01     4.1   25.22     5.4   24.99
     5.5   24.95     6.9   24.31     7.5   24.21    10.4   23.92    10.6   23.93
    13.3    23.7    15.3    23.8    16.4   23.86    19.6    23.9    20.6    23.9
      23    23.9    26.5   24.15    29.2   24.38    31.6   22.55    32.1   22.22
    35.2   21.22    36.5   20.93      38   20.69      40   20.37    42.1   19.83
    43.1   19.69    43.8   19.37    45.8   19.22    48.9   18.87    50.6    18.6
    51.1    18.6    52.4   18.83      53   18.81    55.3   19.33    56.4   19.83
      57   20.13    58.5   20.41    58.9   20.44    61.1   20.59    61.2   20.66
    63.2   21.21    63.6   21.42    64.8   21.74    67.3   22.38      70   23.25
    72.8   23.42    74.8   23.55    75.3   23.56    75.7   23.58    78.4   23.73
    80.3   23.92    81.2   24.02    85.2    24.5    89.8   25.21    94.2   25.98
    98.1   26.81
#Mann= 3 , 0 , 0 
     1.3     .08       0    29.2     .04       0      70     .08       0
Levee=-1,29.2,24.4,0,,,,
Bank Sta=29.2,70
XS Rating Curve= 0 ,0
Exp/Cntr=0.3,0.1

Type RM Length L Ch R = 1 ,1300    ,155,120,119
BEGIN DESCRIPTION:
1300
END DESCRIPTION:
XS GIS Cut Line=5
0.238988494184870.43218419766998 0.22394074193890.42270418767316
0.21261041610291 0.41591829052340.201280091288290.40913239411348
0.184255508981790.39821909805133
Node Last Edited Time=Feb/09/1998 16:36:30
#Sta/Elev= 56 
      .9   26.83     1.1   26.24     1.7   26.21     3.6   25.39     4.8   25.06
     4.9   25.01     6.3   24.24     6.9   24.13     9.7   23.75     9.9   23.75
    12.5   23.62    14.4    23.7    15.5   23.75    18.6   23.79    19.5    23.8
    21.9   23.82    25.3   24.02    27.9   24.19    30.2   22.21    30.6   21.84
    33.5   20.86    34.6   20.61    36.1   20.38      38   20.06    39.8    19.6
    40.8   19.45    41.4   19.07    43.3   18.92    46.1   18.63    47.7   18.42
    48.1   18.42    49.5   18.61    50.1   18.61    52.5   19.01    53.6   19.37
    54.3   19.59    55.9    19.8    56.2   19.83    58.6   19.97    58.7   20.05
    60.8   20.68    61.2   20.92    62.5   21.29    65.1      22      68   22.98
      71    23.2    73.2   23.36    73.8   23.37    74.2   23.39    77.2   23.49
    79.3   23.67    80.2   23.76    84.6   24.22    89.7   24.85    94.5   25.52
    98.7   26.21
#Mann= 3 , 0 , 0 
      .9     .08       0    27.9     .04       0      68     .08       0
Levee=-1,27.8,24.2,0,,,,
Bank Sta=27.9,68
XS Rating Curve= 0 ,0
Exp/Cntr=0.3,0.1

Type RM Length L Ch R = 1 ,1180    ,166,130,117
BEGIN DESCRIPTION:
1180
END DESCRIPTION:
XS GIS Cut Line=5
0.288224019144470.390093655879050.278512674692790.37582730014505
0.271091367220540.365222646100660.263670059081170.35461799098967
0.251407719898480.33627221411161
Node Last Edited Time=Feb/09/1998 16:36:30
#Sta/Elev= 56 
      .4   26.91      .7   26.56     1.3   26.41     3.1   25.57     4.3   25.13
     4.4   25.06     5.7   24.17     6.3   24.06       9   23.57     9.2   23.58
    11.7   23.54    13.6    23.6    14.6   23.64    17.6   23.69    18.5    23.7
    20.8   23.74    24.1   23.88    26.6   23.99    28.7   21.87    29.1   21.46
    31.7   20.51    32.8   20.29    34.1   20.06    35.9   19.75    37.6   19.36
    38.5    19.2    39.1   18.76    40.8   18.63    43.4    18.4    44.9   18.24
      45   18.24    46.5   18.38    47.1    18.4    49.7   18.69    50.9   18.91
    51.6   19.04    53.3    19.2    53.6   19.23    56.1   19.34    56.2   19.43
    58.4   20.15    58.9   20.43    60.2   20.85      63   21.62    65.9   22.72
    69.3   22.97    71.7   23.17    72.3   23.18    72.7   23.19    75.9   23.25
    78.2   23.42    79.3   23.51      84   23.94    89.6    24.5    94.7   25.06
    99.4    25.6
#Mann= 3 , 0 , 0 
      .4     .08       0    26.6     .04       0    65.9     .08       0
Levee=-1,26.6,24,0,,,,
Bank Sta=26.6,65.9
XS Rating Curve= 0 ,0
Exp/Cntr=0.3,0.1

Type RM Length L Ch R = 1 ,1050    ,0,0,0
BEGIN DESCRIPTION:
Downstream River Station
END DESCRIPTION:
XS GIS Cut Line=5
0.355468520604560.341456426865020.347234879968390.32696727660542
0.340979433586730.315899807261360.334723985947340.30483233574183
0.322929653555210.28418426534645
Node Last Edited Time=Feb/09/1998 16:36:30
#Sta/Elev= 28 
       0      27     3.7    25.2     5.1    24.1     8.3    23.4    12.7    23.5
    17.5    23.6    25.3    23.8    27.6   21.08      30   20.15    32.2   19.75
    36.2   18.96    36.7   18.45      42   18.06    48.1   18.45      51   18.62
    53.6   18.71    53.7   18.82      56   19.62    56.5   19.94    57.9    20.4
    60.8   21.24    63.9   22.45    67.5   22.75    70.1   22.98    71.2      23
    74.7   23.01    78.3   23.25     100      25
#Mann= 3 , 0 , 0 
       0     .08       0    25.3     .04       0    63.9     .08       0
Levee=-1,25.3,23.8,0,,,,
Bank Sta=25.3,63.9
XS Rating Curve= 0 ,0
Exp/Cntr=0.3,0.1

River Reach=Spruce Creek    ,Lower Spruce    
Reach XY= 6 
       0.3702929        0.300885       0.4023209       0.2592347
       0.4363928       0.2328661       0.4824901       0.1774919
       0.5265831       0.1432127       0.6107608       0.1062966
Rch Text X Y=0.3097739,0.1716499
Reverse River Text= 0 

Type RM Length L Ch R = 1 ,465     ,180,155,202
BEGIN DESCRIPTION:
Upstream River Station
END DESCRIPTION:
XS GIS Cut Line=5
0.431762358282620.321171368464790.403732682325720.29874476346496
0.383753059056180.283380951581810.363773439602230.26801714263274
0.344118892280710.25290330571888
Node Last Edited Time=Feb/09/1998 16:36:30
#Sta/Elev= 27 
       0    25.2     8.3    23.8    11.5      23    18.7    22.8    28.6    22.4
    39.4      22    56.9   21.58    62.1   21.08    67.5   20.15    72.4   19.75
    81.4   18.96    82.6   18.91    94.5   18.59   105.1   17.95   114.7   18.17
   120.6   18.24   120.8   18.31     126   19.62   127.1   19.94   130.3    20.4
   136.8   21.24   143.8   21.45   151.9   21.75   157.7   21.98   160.2   22.05
   168.1   23.01   176.1   24.62
#Mann= 3 , 0 , 0 
       0     .08       0    56.9     .04       0   136.8     .08       0
Bank Sta=56.9,136.8
XS Rating Curve= 0 ,0
Exp/Cntr=0.3,0.1

Type RM Length L Ch R = 1 ,310     ,175,140,183
BEGIN DESCRIPTION:
310
END DESCRIPTION:
XS GIS Cut Line=5
 0.49797030935870.254362703521090.471207299716390.23043872682504
0.451903582190420.214233834006790.432599868028840.19802894466695
0.413582820164060.18212041905389
Node Last Edited Time=Feb/09/1998 16:36:30
#Sta/Elev= 39 
       0    25.1     8.3   23.53    11.4   22.73    18.6   22.28    28.5   22.03
    39.3    21.8    56.9   21.58    61.8    21.1    62.3   21.06      67   20.22
    67.7   20.13    71.7    19.8    72.9   19.72    80.5   19.05    81.4   18.97
    81.9   18.94      83   18.89    92.9   18.63    95.4   18.53   106.2   17.82
   113.1   18.13   115.4   18.18   119.4   18.23   119.7   18.25     121   18.38
   121.2   18.44   125.1   19.42   126.4   19.72   126.4   19.74   127.3   19.99
   129.8   20.33   130.5   20.43   136.8   21.24   143.7   21.45   151.8   21.75
   157.7   21.98   160.2   22.05     168   23.01   176.1   24.62
#Mann= 3 , 0 , 0 
       0     .08       0    56.9     .04       0   136.8     .08       0
Bank Sta=56.9,136.8
XS Rating Curve= 0 ,0
Exp/Cntr=0.3,0.1

Type RM Length L Ch R = 1 ,170     ,180,170,200
BEGIN DESCRIPTION:
170
END DESCRIPTION:
XS GIS Cut Line=5
0.548945851497370.20307016950051 0.52896959696620.17324459991714
0.514477506156630.152623946058910.499985417818320.13200329634696
0.485703884167970.11173590644923
Node Last Edited Time=Feb/09/1998 16:36:30
#Sta/Elev= 39 
       0      25     8.3   23.27    11.4   22.45    18.6   21.75    28.5   21.65
    39.3   21.61    56.9   21.58    62.1   21.09    62.3   21.04    67.2   20.19
    67.9   20.11    72.2   19.78    73.1   19.69      81      19    82.1   18.94
    82.5   18.92    83.7   18.88    93.8   18.61      96   18.47   107.1   17.76
   113.8   18.15   116.1   18.19   119.9   18.23   120.1   18.28   121.7   18.52
   121.9   18.58   125.5   19.52   126.2   19.82   126.6   19.84   127.8   20.03
     130   20.36   130.7   20.46   136.8   21.24   143.7   21.45   151.8   21.75
   157.7   21.98   160.2   22.05     168   23.01   176.1   24.63
#Mann= 3 , 0 , 0 
       0     .08       0    56.9     .04       0   136.8     .08       0
Bank Sta=56.9,136.8
XS Rating Curve= 0 ,0
Exp/Cntr=0.3,0.1

Type RM Length L Ch R = 1 ,0       ,0,0,0
BEGIN DESCRIPTION:
Downstream River Station
END DESCRIPTION:
XS GIS Cut Line=5
0.635300560175870.16225323058005 0.62088329323260.12937835020075
       0.6107608       0.10629660.600638308700530.08321485420726
 0.59068051222120.06050865272069
Node Last Edited Time=Feb/09/1998 16:36:30
#Sta/Elev= 27 
       0    24.9     8.3      23    11.4   22.18    18.6   21.23    28.5   21.28
    39.3   21.41    56.9   21.58    62.1   21.08    67.5   20.15    72.4   19.75
    81.4   18.96    82.5   18.91    94.5   18.59   108.2    17.7   114.7   18.17
   120.6   18.24   120.8   18.31     126   19.62   127.1   19.94   130.2    20.4
   136.8   21.24   143.7   21.45   151.8   21.75   157.7   21.98   160.2   22.05
     168   23.01   176.1   24.65
#Mann= 3 , 0 , 0 