Geom Title=Base Geometry Data - Energy
Program Version=4.01
Viewing Rectangle= 0.3752 , 0.6417 , 0.9288 , 0.0738 

River Reach=Putah Creek     ,Putah Creek     
Reach XY= 16 
             0.5             0.9       0.5100464       0.8419958
       0.5162287       0.7962578       0.5162287       0.7525988
       0.5131376       0.7068607       0.5131376       0.6715177
        0.503864       0.6465696             0.5       0.6070686
             0.5       0.4781705        0.496136       0.4324324
       0.4914992       0.3846154       0.4868624       0.3201663
        0.496136       0.2702703       0.5100464       0.2016632
       0.5085008       0.1496881             0.5             0.1
Rch Text X Y=0.6119134,0.5439673
Reverse River Text= 0 

Type RM Length L Ch R = 1 ,12      ,47.5,50,60
BEGIN DESCRIPTION:
Upstream River Station 12
END DESCRIPTION:
XS GIS Cut Line=5
0.621315772474010.920375132275070.52990914994129 0.9051803021845
             0.5             0.90.47009085005871 0.8948196978155
0.391316906848440.88157196955133
Node Last Edited Time=Aug/27/1998 12:38:44
#Sta/Elev= 15 
       0  1290.5      22  1289.3      66  1288.5      98  1287.1     110    1286
     116  1285.1     130  1280.5     140  1278.2     162    1279     176  1280.1
     192    1285     200  1286.3     215    1287     273  1288.2     292  1289.3
#Mann= 3 , 0 , 0 
       0    .035       0     116    .025       0     192    .035       0
Bank Sta=116,192
XS Rating Curve= 0 ,0
Exp/Cntr=0.3,0.1

Type RM Length L Ch R = 1 ,11.5*   ,47.5,50,60
BEGIN DESCRIPTION:
Interpolated Cross Section 11.5*
END DESCRIPTION:
XS GIS Cut Line=5
0.628556275612760.878252129480380.536760821054520.86561693946331
0.506816187084870.860645855340410.47687155311522 0.8556747712175
0.397828849296860.84413841970846
Node Last Edited Time=Aug/27/1998 12:38:44
#Sta/Elev= 15 
       0  1289.9      22 1288.65      66  1287.9      98 1286.65     110  1285.5
     116 1284.65     130 1279.75     140 1277.75     162  1278.7     176 1279.55
     192  1284.5     200 1286.05     215  1286.9     273  1287.8     292 1288.75
#Mann= 3 , 0 , 0 
       0    .035       0     116    .025       0     192    .035       0
Bank Sta=116,192
XS Rating Curve= 0 ,0
Exp/Cntr=0.3,0.1

Type RM Length L Ch R = 1 ,11      ,62.5,50,45
BEGIN DESCRIPTION:
Cross Section 11
END DESCRIPTION:
XS GIS Cut Line=5
0.635241193128310.833499358843640.542964942049160.82506449126326
0.512860994476990.821172817907780.48275704690483 0.8172811445523
0.403255465739470.80951358217639
Node Last Edited Time=Aug/27/1998 12:38:44
#Sta/Elev= 15 
       0  1289.3      22    1288      66  1287.3      98  1286.2     110    1285
     116  1284.2     130    1279     140  1277.3     162  1278.4     176    1279
     192    1284     200  1285.8     215  1286.8     273  1287.4     292  1288.2
#Mann= 3 , 0 , 0 
       0    .035       0     116    .025       0     192    .035       0
Bank Sta=116,192
XS Rating Curve= 0 ,0
Exp/Cntr=0.3,0.1

Type RM Length L Ch R = 1 ,10.5*   ,62.5,50,45
BEGIN DESCRIPTION:
Interpolated Cross Section 10.5*
END DESCRIPTION:
XS GIS Cut Line=5
0.63912944217175 0.78672211447840.546566895682030.78245263070872
       0.51622870.781459321244320.485890504317970.78046601177991
0.406073452539780.77729194837563
Node Last Edited Time=Aug/27/1998 12:38:44
#Sta/Elev= 15 
       0 1288.75      22  1287.5      66 1286.75      98 1285.65     110  1284.7
     116 1283.65     130  1278.5     140  1276.9     162  1277.7     176  1278.5
     192 1283.65     200  1284.9     215 1285.95     273 1286.25     292 1286.85
#Mann= 3 , 0 , 0 
       0    .035       0     116    .025       0     192    .035       0
Bank Sta=116,192
XS Rating Curve= 0 ,0
Exp/Cntr=0.3,0.1

Type RM Length L Ch R = 1 ,10      ,47.5,50,51.5
BEGIN DESCRIPTION:
Cross Section 10
END DESCRIPTION:
XS GIS Cut Line=5
0.638417444638730.737183567590060.545803879635230.74014685658436
0.515481619457610.74154446835247   0.485159359280.74294208012058
0.40529471993278  0.744515552394
Node Last Edited Time=Aug/27/1998 12:38:44
#Sta/Elev= 15 
       0  1288.2      22    1287      66  1286.2      98  1285.1     110  1284.4
     116  1283.1     130    1278     140  1276.5     162    1277     176    1278
     192  1283.3     200    1284     215  1285.1     273  1285.1     292  1285.5
#Mann= 3 , 0 , 0 
       0    .035       0     116    .025       0     192    .035       0
Bank Sta=116,192
XS Rating Curve= 0 ,0
Exp/Cntr=0.3,0.1

Type RM Length L Ch R = 1 ,9.5*    ,47.5,50,51.5
BEGIN DESCRIPTION:
Interpolated Cross Section 9.5*
END DESCRIPTION:
XS GIS Cut Line=5
0.635795660489950.692818113447370.543479226075920.70080118562541
       0.51313760.701683516630470.482795973924080.70256584763554
0.403255844459170.70992820036829
Node Last Edited Time=Aug/27/1998 12:38:44
#Sta/Elev= 15 
       0 1287.65      22  1286.5      66  1285.8      98  1284.7     110 1283.75
     116 1282.55     130 1277.75     140 1275.65     162  1276.5     176  1277.5
     192  1282.7     200  1283.5     215  1284.6     273 1284.75     292    1285
#Mann= 3 , 0 , 0 
       0    .035       0     116    .025       0     192    .035       0
Bank Sta=116,192
XS Rating Curve= 0 ,0
Exp/Cntr=0.3,0.1

Type RM Length L Ch R = 1 ,9       ,60.5,50,50
BEGIN DESCRIPTION:
Cross Section 9
END DESCRIPTION:
XS GIS Cut Line=5
0.631908877762060.648822461514910.539608726366830.65699164487302
0.50973202557026 0.66235592771840.479855324773690.66772021056379
0.400356753712320.67551852014076
Node Last Edited Time=Aug/27/1998 12:38:44
#Sta/Elev= 15 
       0  1287.1      22    1286      66  1285.4      98  1284.3     110  1283.1
     116    1282     130  1277.5     140  1274.8     162    1276     176    1277
     192  1282.1     200    1283     215  1284.1     273  1284.4     292  1285.1
#Mann= 3 , 0 , 0 
       0    .035       0     116    .025       0     192    .035       0
Bank Sta=116,192
XS Rating Curve= 0 ,0
Exp/Cntr=0.3,0.1

Type RM Length L Ch R = 1 ,8.5*    ,60.5,50,50
BEGIN DESCRIPTION:
Interpolated Cross Section 8.5*
END DESCRIPTION:
XS GIS Cut Line=5
0.624204753513390.613492898339380.531799255007390.62036875102674
0.50161524090764 0.62358092688730.471431226807880.62679310274786
0.391826136263840.63341624343269
Node Last Edited Time=Aug/27/1998 12:38:44
#Sta/Elev= 16 
       0  1286.6      22  1285.5      66  1284.8      98 1283.65     110 1282.75
     116  1281.5     130  1276.9     140  1274.5     162  1275.6     176 1276.55
     192  1281.9     200 1282.55     215  1283.8     273  1285.3     292  1285.7
     292  1286.3
#Mann= 3 , 0 , 0 
       0    .035       0     116    .025       0     192    .035       0
Bank Sta=116,192
XS Rating Curve= 0 ,0
Exp/Cntr=0.3,0.1

Type RM Length L Ch R = 1 ,8       ,110,110,110
BEGIN DESCRIPTION:
Cross Section 8
END DESCRIPTION:
XS GIS Cut Line=5
0.62277683567514 0.57676017397470.530352534948050.58337849244914
             0.50.583719671523190.469647465051950.58406085059725
 0.38991744808980.58895583050237
Node Last Edited Time=Aug/27/1998 12:38:44
#Sta/Elev= 15 
       0  1286.1      22    1285      66  1284.2      98    1283     110  1282.4
     116    1281     130  1276.3     140  1274.2     162  1275.2     176  1276.1
     192  1281.7     200  1282.1     215  1283.5     273  1285.2     292  1286.8
#Mann= 3 , 0 , 0 
       0    .035       0     116    .025       0     192    .035       0
#XS Ineff= 2 , 0 
       0     102    1285     208       0    1285
Permanent Ineff=
       F       F
Bank Sta=116,192
XS Rating Curve= 0 ,0
Exp/Cntr=0.3,0.1

Type RM Length L Ch R = 3 ,7       ,,,
BEGIN DESCRIPTION:
Large Pier Bridge
END DESCRIPTION:
Node Last Edited Time=Oct/25/2007 15:45:57
Bridge Culvert--1,-1,-1,-1, 0 
Deck Dist Width WeirC Skew NumUp NumDn MinLoCord MaxHiCord MaxSubmerge Is_Ogee
10,90,2.9,0, 2, 2, , , 0.95, 0, 2,2,,
       0     292
    1285    1285
    1282    1282
       0     292
    1285    1285
    1282    1282
Pier Skew, UpSta & Num, DnSta & Num=  ,150, 2 ,150, 2 , 0 , 0 , 0 ,,
       8       8
    1272    1284
       8       8
    1272    1284
BR Coef= 1 , 1 , 0 ,, 0 ,,,0.8,-1,1.33,0,
WSPro=,,,, 1 ,,,, 0 ,,,, 0 ,,,,-1 ,-1 ,-1 , 0 , 0 , 0 , 0 , 0 
BC Design=,, 0 ,, 0 ,,,,,,
BC HTab HWMax=1286.8
BC Use User HTab Curves=0
BC User HTab FreeFlow(D)= 0 

Type RM Length L Ch R = 1 ,6       ,52.5,50,47.5
BEGIN DESCRIPTION:
Cross Section 6
END DESCRIPTION:
XS GIS Cut Line=5
0.622950557430660.491979255247290.530349759427260.49531777489743
             0.5 0.49585151981850.469650240572740.49638526473958
0.389816460046270.49910627923926
Node Last Edited Time=Aug/27/1998 12:38:44
#Sta/Elev= 16 
       0  1285.1      22    1284      66  1283.2      98  1282.1     110  1281.3
     116    1280     130    1275     140  1273.4     162    1274     176  1275.1
     192    1280     200    1281     215  1282.2     273  1282.2     292  1282.5
     292    1288
#Mann= 3 , 0 , 0 
       0    .035       0     116    .025       0     192    .035       0
Bank Sta=116,192
XS Rating Curve= 0 ,0
Exp/Cntr=0.1,0.1

Type RM Length L Ch R = 1 ,5.5*    ,52.5,50,47.5
BEGIN DESCRIPTION:
Interpolated Cross Section 5.5*
END DESCRIPTION:
XS GIS Cut Line=5
0.620922186937380.448725859202990.528396641530130.45373354843161
0.498126208250040.455990460031290.467855774969940.45824737163098
 0.38810525608210.46279612642495
Node Last Edited Time=Aug/27/1998 12:38:44
#Sta/Elev= 17 
       0 1284.55      22  1283.5      66  1282.6      98 1281.55     110 1280.65
     116  1279.5     130  1274.5     140 1272.85     162  1273.5     176 1274.55
     192  1279.5     200  1280.5     215  1281.6     273  1281.6     292    1282
     292 1282.02     292    1288
#Mann= 3 , 0 , 0 
       0    .035       0     116    .025       0     192    .035       0
Bank Sta=116,192
XS Rating Curve= 0 ,0
Exp/Cntr=0.1,0.1

Type RM Length L Ch R = 1 ,5       ,62,50,47.5
BEGIN DESCRIPTION:
Cross Section 5
END DESCRIPTION:
XS GIS Cut Line=5
0.617220906965980.406927868580420.524783973198710.41336733905765
0.494562957504570.416210399265850.464341941810420.41905345947404
0.384685949592560.42503337058084
Node Last Edited Time=Aug/27/1998 12:38:44
#Sta/Elev= 16 
       0    1284      22    1283      66    1282      98    1281     110    1280
     116    1279     130    1274     140  1272.3     162    1273     176    1274
     192    1279     200    1280     215    1281     273    1281     292  1281.5
     292    1288
#Mann= 3 , 0 , 0 
       0    .035       0     116    .025       0     192    .035       0
Bank Sta=116,192
XS Rating Curve= 0 ,0
Exp/Cntr=0.1,0.1

Type RM Length L Ch R = 1 ,4.5*    ,62,50,47.5
BEGIN DESCRIPTION:
Interpolated Cross Section 4.5*
END DESCRIPTION:
XS GIS Cut Line=5
0.613782550468070.371112215990940.521166195299610.37398697852548
0.490910995215840.376439660491130.460655795132070.37889234245677
0.380852550816050.38239643002611
Node Last Edited Time=Aug/27/1998 12:38:44
#Sta/Elev= 16 
       0 1283.55      22  1282.5      66  1281.6      98  1280.5     110 1279.75
     116 1278.55     130 1273.55     140  1271.6     162  1272.5     176 1273.65
     192  1278.5     200 1279.55     215  1280.5     273  1280.7     292    1281
     292 1284.27
#Mann= 3 , 0 , 0 
       0    .035       0     116    .025       0     192    .035       0
Bank Sta=116,192
XS Rating Curve= 0 ,0
Exp/Cntr=0.1,0.1

Type RM Length L Ch R = 1 ,4       ,50,50,50
BEGIN DESCRIPTION:
Cross Section 4
END DESCRIPTION:
XS GIS Cut Line=5
0.611017528941920.338908408052070.518396524430180.33618755753144
0.488044909073680.336602558958890.457693293717190.33701756038633
0.377839751439830.33495643961954
Node Last Edited Time=Aug/27/1998 12:38:44
#Sta/Elev= 15 
       0  1283.1      22    1282      66  1281.2      98    1280     110  1279.5
     116  1278.1     130  1273.1     140  1270.9     162    1272     176  1273.3
     192    1278     200  1279.1     215    1280     273  1280.4     292  1280.5
#Mann= 3 , 0 , 0 
       0    .035       0     116    .025       0     192    .035       0
Bank Sta=116,192
XS Rating Curve= 0 ,0
Exp/Cntr=0.1,0.1

Type RM Length L Ch R = 1 ,3.5*    ,50,50,50
BEGIN DESCRIPTION:
Interpolated Cross Section 3.5*
END DESCRIPTION:
XS GIS Cut Line=5
0.613391337306970.310473864874590.521136344497020.30180958152536
 0.49114947262840.297099985314580.461162600759790.29239038910379
0.381674129794470.28448979313565
Node Last Edited Time=Aug/27/1998 12:38:44
#Sta/Elev= 15 
       0 1282.55      22  1281.5      66  1280.6      98  1279.6     110  1278.8
     116 1277.55     130 1272.55     140 1270.55     162  1271.5     176 1272.85
     192  1277.5     200  1278.6     215  1279.6     273  1279.7     292    1280
#Mann= 3 , 0 , 0 
       0    .035       0     116    .025       0     192    .035       0
Bank Sta=116,192
XS Rating Curve= 0 ,0
Exp/Cntr=0.1,0.1

Type RM Length L Ch R = 1 ,3       ,55,50,45
BEGIN DESCRIPTION:
Cross Section 3
END DESCRIPTION:
XS GIS Cut Line=5
0.620537784180380.273847447146690.528427308356780.26376212375721
 0.4986498803109  0.2578716602860.468872452265010.25198119681479
0.389715436928410.24125723504421
Node Last Edited Time=Aug/27/1998 12:38:44
#Sta/Elev= 15 
       0    1282      22    1281      66    1280      98  1279.2     110  1278.1
     116    1277     130    1272     140  1270.2     162    1271     176  1272.4
     192    1277     200  1278.1     215  1279.2     273    1279     292  1279.5
#Mann= 3 , 0 , 0 
       0    .035       0     116    .025       0     192    .035       0
Bank Sta=116,192
XS Rating Curve= 0 ,0
Exp/Cntr=0.1,0.1

Type RM Length L Ch R = 1 ,2.5*    ,55,50,45
BEGIN DESCRIPTION:
Interpolated Cross Section 2.5*
END DESCRIPTION:
XS GIS Cut Line=5
0.628912911243260.23125983459126 0.53659431469030.22330180501023
0.506586419833470.218728072705520.476578524976650.21415434040081
0.397085518808980.20629950727192
Node Last Edited Time=Aug/27/1998 12:38:44
#Sta/Elev= 15 
       0  1281.5      22 1280.55      66  1279.5      98 1278.75     110  1277.8
     116  1276.6     130 1271.55     140  1269.8     162  1270.5     176 1271.85
     192  1276.7     200  1277.6     215    1279     273 1278.55     292    1279
#Mann= 3 , 0 , 0 
       0    .035       0     116    .025       0     192    .035       0
Bank Sta=116,192
XS Rating Curve= 0 ,0
Exp/Cntr=0.1,0.1

Type RM Length L Ch R = 1 ,2       ,60,50,45
BEGIN DESCRIPTION:
Cross Section 2
END DESCRIPTION:
XS GIS Cut Line=5
0.632387954222650.179952413385630.539731146508010.17907520847699
 0.50937677476830.17914518862584 0.47902240302860.17921516877468
0.399145186045440.17853205818242
Node Last Edited Time=Aug/27/1998 12:38:44
#Sta/Elev= 15 
       0    1281      22  1280.1      66    1279      98  1278.3     110  1277.5
     116  1276.2     130  1271.1     140  1269.4     162    1270     176  1271.3
     192  1276.4     200  1277.1     215  1278.8     273  1278.1     292  1278.5
#Mann= 3 , 0 , 0 
       0    .035       0     116    .025       0     192    .035       0
Bank Sta=116,192
XS Rating Curve= 0 ,0
Exp/Cntr=0.1,0.1

Type RM Length L Ch R = 1 ,1.5*    ,60,50,45
BEGIN DESCRIPTION:
Interpolated Cross Section 1.5*
END DESCRIPTION:
XS GIS Cut Line=5
0.629288495913810.129095765811860.536857671048290.13562233604444
 0.50673521825670.139368082799380.476612765465120.14311382955431
  0.397014710122 0.1498209912976
Node Last Edited Time=Aug/27/1998 12:38:44
#Sta/Elev= 15 
       0  1280.6      22  1279.8      66 1278.55      98 1277.75     110 1276.95
     116  1275.9     130 1270.65     140 1268.75     162  1269.5     176 1270.85
     192  1275.8     200  1276.6     215 1278.05     273  1277.6     292    1278
#Mann= 3 , 0 , 0 
       0    .035       0     116    .025       0     192    .035       0
Bank Sta=116,192
XS Rating Curve= 0 ,0
Exp/Cntr=0.1,0.1

Type RM Length L Ch R = 1 ,1       ,0,0,0
BEGIN DESCRIPTION:
Downstream River Station 1
END DESCRIPTION:
XS GIS Cut Line=5
0.621704451981480.082168221570780.52991974292753 0.0948812341249
             0.5             0.10.47008025707247 0.1051187658751
0.391023606817860.11655915413667
Node Last Edited Time=Aug/27/1998 12:38:44
#Sta/Elev= 15 
       0  1280.2      22  1279.5      66  1278.1      98  1277.2     110  1276.4
     116  1275.6     130  1270.2     140  1268.1     162    1269     176  1270.4
     192  1275.2     200  1276.1     215  1277.3     273  1277.1     292  1277.5
#Mann= 3 , 0 , 0 
       0    .035       0     116    .025       0     192    .035       0
Bank Sta=116,192
XS Rating Curve= 0 ,0
Exp/Cntr=0.1,0.1

Chan Stop Cuts=-1 



Use User Specified Reach Order=0
User Specified Reach Order=Putah Creek     ,Putah Creek     
GIS Ratio Cuts To Invert=-1
