Geom Title=Proposed Bridge
Program Version=4.01
Viewing Rectangle=-0.0264 , 0.5248 , 0.7433 , 0.0669 

River Reach=Napa Creek      ,South Reach     
Reach XY= 17 
      -0.0070397       0.7259972       0.0114729        0.702552
       0.0346682       0.6548141       0.0441395       0.6121931
       0.0567679       0.5869363       0.0804462       0.5695722
       0.1262243        0.549051       0.1541638       0.5218411
       0.2004162       0.4732805         0.23988       0.4227668
        0.299865       0.3280537       0.3156506       0.2996397
       0.3677428       0.2522832       0.4229922        0.203348
        0.462456       0.1559914       0.4861343       0.1165276
        0.502672       0.0804732
Rch Text X Y=0.0313146,0.4188213
Reverse River Text= 0 

Type RM Length L Ch R = 1 ,3800    ,100,100,100
BEGIN DESCRIPTION:
3800
END DESCRIPTION:
XS GIS Cut Line=5
0.006507321637040.73669408434127-0.00230103756490.72973890244634
      -0.0070397       0.7259972-0.01177836173580.72225549810572
-0.02098443538630.71498627630073
Node Last Edited Time=Dec/10/1996 10:21:46
#Sta/Elev= 12 
       0      30    4.89    29.7   45.78      25   48.06   24.05   69.13    13.6
   75.87    12.9    83.6   12.74   94.28   21.46   99.77   25.16  108.27      30
  122.49      31     150   31.39
#Mann= 3 , 0 , 0 
       0     .08       0   48.06    .035       0   99.77     .08       0
Bank Sta=48.06,99.77
XS Rating Curve= 0 ,0
Exp/Cntr=0.3,0.1

Type RM Length L Ch R = 1 ,3700    ,100,100,100
BEGIN DESCRIPTION:
3700
END DESCRIPTION:
XS GIS Cut Line=5
0.020867660531740.717684948405730.012073697144310.71133436368563
0.007432172027020.707669361984380.002790647608890.70400436083518
-0.00728140008320.69685148185946
Node Last Edited Time=Dec/10/1996 10:21:46
#Sta/Elev= 14 
       0    30.1   12.83      30   36.66   26.79   46.45      25   57.72   18.32
   68.05    11.5   75.46   12.18   81.58   12.23   90.12   20.69    97.1      25
  102.58      27  110.31      28   145.2   28.71     150   28.71
#Mann= 3 , 0 , 0 
       0     .08       0   46.45    .035       0    97.1     .08       0
Bank Sta=46.45,97.1
XS Rating Curve= 0 ,0
Exp/Cntr=0.3,0.1

Type RM Length L Ch R = 1 ,3600    ,100,100,100
BEGIN DESCRIPTION:
3600
END DESCRIPTION:
XS GIS Cut Line=5
0.034506829007560.695029888099730.024527624315160.69018110659486
0.01882912203083 0.68741226946470.013130620547750.68464343272386
0.00300018289637 0.6797211688527
Node Last Edited Time=Dec/10/1996 10:21:46
#Sta/Elev= 17 
       0    30.1    17.4   30.27   28.43      30   31.64   29.34   46.75      25
   47.51    24.9   52.97   21.63   64.84   13.17    78.1   13.58    87.8   13.36
   94.16    18.9  101.77      25  104.23    26.2  114.66      27   121.3   27.69
  136.88      28     150   28.01
#Mann= 3 , 0 , 0 
       0     .08       0   47.51    .035       0  101.77     .08       0
Bank Sta=47.51,101.77
XS Rating Curve= 0 ,0
Exp/Cntr=0.3,0.1

Type RM Length L Ch R = 1 ,3500    ,100,100,100
BEGIN DESCRIPTION:
3500
END DESCRIPTION:
XS GIS Cut Line=5
0.044788257917780.674062198347420.033445865317750.66855105941849
0.029034934862180.666407838723910.024624004406620.66426461802932
0.013281611806590.65875347910039
Node Last Edited Time=Dec/10/1996 10:21:46
#Sta/Elev= 13 
       0      27    6.82      27   31.02   26.72   41.18   26.52   47.66   26.19
      54      22      67    8.97      83    8.97      96   21.97  101.12   25.22
  113.88      26  140.72   26.45     150   26.57
#Mann= 3 , 0 , 0 
       0     .08       0      54    .035       0      96     .08       0
Bank Sta=54,96
XS Rating Curve= 0 ,0
Exp/Cntr=0.3,0.1

Type RM Length L Ch R = 1 ,3400    ,100,100,100
BEGIN DESCRIPTION:
3400
END DESCRIPTION:
XS GIS Cut Line=5
0.053978832798790.648642556761750.041725153941970.64566432294606
0.036937883392040.644600488790140.032150612842110.64353665463421
0.019896933985280.64055842081852
Node Last Edited Time=Dec/10/1996 10:21:46
#Sta/Elev= 14 
       0    26.3    8.23   25.95   16.61      25   33.24   23.54   42.31   22.08
      54    21.5      67     8.5      83     8.5      96    21.5   98.34   21.65
  103.41      25   124.3      26  139.65   26.09     150   26.07
#Mann= 3 , 0 , 0 
       0     .08       0      54    .035       0      96     .08       0
Bank Sta=54,96
XS Rating Curve= 0 ,0
Exp/Cntr=0.3,0.1

Type RM Length L Ch R = 1 ,3300    ,100,100,100
BEGIN DESCRIPTION:
3300
END DESCRIPTION:
XS GIS Cut Line=5
0.059023823127690.625930689902840.046791030874930.62286779651782
  0.0420037603250.621803962361890.037216489775070.62074012820597
0.024983697522310.61767723482095
Node Last Edited Time=Dec/10/1996 10:21:46
#Sta/Elev= 12 
       0    26.2   25.87      26   42.02      25   50.13   21.34      54   21.15
      67     8.1      83    8.15      96   21.15  102.53   25.47  105.39   25.61
  131.28    25.5     150   25.21
#Mann= 3 , 0 , 0 
       0     .08       0      54    .035       0      96     .08       0
Bank Sta=54,96
XS Rating Curve= 0 ,0
Exp/Cntr=0.3,0.1

Type RM Length L Ch R = 1 ,3200    ,100,100,100
BEGIN DESCRIPTION:
3200
END DESCRIPTION:
XS GIS Cut Line=5
0.065845564764050.607944499969390.054566468268770.60230495172175
0.050180152965050.600111794069890.045793837661340.59791863641803
0.03451474116606 0.5922790881704
Node Last Edited Time=Dec/10/1996 10:21:46
#Sta/Elev= 16 
       0    25.9   27.12   25.45   32.61   25.42   44.83   25.06   46.52   23.44
   48.46    25.2   51.61   20.91      54   20.79      67    7.79      83    7.79
      96    20.8   101.5   24.43     114   24.79  128.44      25  148.87      25
     150    24.9
#Mann= 3 , 0 , 0 
       0     .08       0      54    .035       0      96     .08       0
Bank Sta=54,96
XS Rating Curve= 0 ,0
Exp/Cntr=0.3,0.1

Type RM Length L Ch R = 1 ,3100    ,100,100,100
BEGIN DESCRIPTION:
3100
END DESCRIPTION:
XS GIS Cut Line=5
0.07480369765271 0.59538713733330.066620773522590.58579222853395
0.063720695339410.581837579502620.06082061715623 0.5778829304713
0.052637693026110.56828802167194
Node Last Edited Time=Dec/10/1996 10:21:46
#Sta/Elev= 14 
       0    25.2   18.45   25.15   29.07   25.41   43.63   25.12   49.12   20.68
      54    20.4      67    7.44      83    7.44      96   20.44  105.56   20.96
  112.83      24  131.33   24.33   143.5   24.41     150   24.07
#Mann= 3 , 0 , 0 
       0     .08       0      54    .035       0      96     .08       0
Bank Sta=54,96
XS Rating Curve= 0 ,0
Exp/Cntr=0.3,0.1

Type RM Length L Ch R = 1 ,3000    ,100,100,100
BEGIN DESCRIPTION:
3000
END DESCRIPTION:
XS GIS Cut Line=5
 0.09115568474140.583910237992810.085053336695550.57287466503467
0.082829480183620.568503833918750.080605623671690.56413300280283
0.074503275625840.55309742984469
Node Last Edited Time=Dec/10/1996 10:21:46
#Sta/Elev= 13 
       0      25   15.54   24.93   39.17      24   45.94   21.38   47.93   20.39
      54    20.1      67    7.08      83    7.08      96   20.08  101.75   23.88
  119.82      24  143.19   24.03     150   24.33
#Mann= 3 , 0 , 0 
       0     .08       0      54    .035       0      96     .08       0
Bank Sta=54,96
XS Rating Curve= 0 ,0
Exp/Cntr=0.3,0.1

Type RM Length L Ch R = 1 ,2900    ,100,100,100
BEGIN DESCRIPTION:
2900
END DESCRIPTION:
XS GIS Cut Line=5
0.111303353471230.574933427594480.106144993089410.56342630630554
0.104138964052040.558951314693170.10213293501467 0.5544763230808
0.096974574632850.54296920179186
Node Last Edited Time=Dec/10/1996 10:21:46
#Sta/Elev= 14 
       0    23.6    1.54   23.84    9.54      24   44.01      24   47.89   22.88
   50.35    19.9      54   19.73      67    6.73      83    6.73      96   19.73
   97.94    20.4     103    23.1  128.47      24     150   24.71
#Mann= 3 , 0 , 0 
       0     .08       0      54    .035       0      96     .08       0
Bank Sta=54,96
XS Rating Curve= 0 ,0
Exp/Cntr=0.3,0.1

Type RM Length L Ch R = 1 ,2800    ,100,100,100
BEGIN DESCRIPTION:
2800
END DESCRIPTION:
XS GIS Cut Line=5
0.135040495249490.564052370490680.128078635728720.55353785508576
0.125448447920460.54939879546759 0.12281826011220.54525973584941
0.115856400591430.53474522044449
Node Last Edited Time=Dec/10/1996 10:21:46
#Sta/Elev= 14 
       0    23.7   22.25    23.7   41.46   23.36   48.37   23.12      54   19.38
      67     6.4      83    6.38      96   19.38    97.4   19.51   99.98    23.2
  110.13    23.4  125.56      24  133.97      25     150   25.35
#Mann= 3 , 0 , 0 
       0     .08       0      54    .035       0      96     .08       0
Bank Sta=54,96
XS Rating Curve= 0 ,0
Exp/Cntr=0.3,0.1

Type RM Length L Ch R = 1 ,2700    ,100,100,100
BEGIN DESCRIPTION:
2700
END DESCRIPTION:
XS GIS Cut Line=5
0.154564659256610.545898632691420.145766486840840.53686454810418
0.142344975345820.53335129298691 0.13892346385080.52983803786965
0.130125291435020.52080395328241
Node Last Edited Time=Dec/10/1996 10:21:46
#Sta/Elev= 10 
       0    23.2   48.85   22.46      54   19.02      67    6.02      83    6.02
      96      19  108.25   19.67  114.66      25  129.09   25.43     150    25.7
#Mann= 3 , 0 , 0 
       0     .08       0      54    .035       0      96     .08       0
Bank Sta=54,96
XS Rating Curve= 0 ,0
Exp/Cntr=0.3,0.1

Type RM Length L Ch R = 1 ,2600    ,36,36,36
BEGIN DESCRIPTION:
2600
END DESCRIPTION:
XS GIS Cut Line=5
0.171499106190410.529034772448190.162442712660240.52025956541851
0.158891658066880.516877300836230.155340603473510.51349503625396
0.146284209943340.50471982922427
Node Last Edited Time=Dec/10/1996 10:21:46
#Sta/Elev= 13 
       0    23.4   44.88   22.31   49.42   22.08   52.11   18.76      54   18.67
      67     5.7      83    5.67      96   18.67   105.8   25.15  112.88      26
  118.78      26  135.39   26.33     150    26.6
#Mann= 3 , 0 , 0 
       0     .08       0      54    .035       0      96     .08       0
Bank Sta=54,96
XS Rating Curve= 0 ,0
Exp/Cntr=0.3,0.1

Type RM Length L Ch R = 1 ,2564    ,15,15,15
BEGIN DESCRIPTION:
2564
END DESCRIPTION:
XS GIS Cut Line=5
0.177372163755640.522869295041450.168240880515560.51417204325846
 0.16468982592220.510789778676180.161138771328840.50740751409391
0.152007488088770.49871026231092
Node Last Edited Time=Dec/10/1996 10:21:46
#Sta/Elev= 21 
       0   23.18    11.7   23.79    28.3    23.8    29.9    23.6    41.9   25.63
    44.9   24.03    46.9   22.95    49.4   21.66    52.1   19.49      54   18.53
      67    5.53      83    5.53      96   18.53   105.8   24.99   105.9   25.04
   111.5    25.9   112.9   25.95   118.8   25.99   132.5   26.14   135.4   26.21
     150   26.57
#Mann= 3 , 0 , 0 
       0     .08       0      54    .035       0      96     .08       0
Bank Sta=54,96
XS Rating Curve= 0 ,0
Exp/Cntr=0.3,0.1

Type RM Length L Ch R = 1 ,2549.*  ,9,9,9
BEGIN DESCRIPTION:
2549 - Interpolated
END DESCRIPTION:
XS GIS Cut Line=5
0.179788067028690.520332827474760.170656783788620.51163557569177
0.16710572919526 0.50825331110950.163554674601890.50487104652722
0.154423391361820.49617379474423
Node Last Edited Time=Dec/10/1996 10:21:46
#Sta/Elev= 32 
       0   23.24     2.9   23.47     4.1   23.13    11.7   23.69      16    23.9
    25.5   23.99    28.3   24.15    29.9   24.14      31    24.3    41.8    26.1
    41.9   26.07    44.9   24.27    46.9   23.07    49.4   21.59    52.1    19.6
      54   18.49      67    5.49      83    5.49      96   18.47    97.6   18.96
   103.6   24.11   105.8   24.87   105.9    24.9   111.5   25.44   112.9   25.49
   114.4   25.52   118.8   25.72   125.3   26.03   128.6   26.05   132.5   26.12
   135.4    26.2     150   26.57
#Mann= 3 , 0 , 0 
       0     .08       0      54    .035       0      96     .08       0
Bank Sta=54,96
XS Rating Curve= 0 ,0
Exp/Cntr=0.3,0.1

Type RM Length L Ch R = 1 ,2540    ,56,56,56
BEGIN DESCRIPTION:
2540
END DESCRIPTION:
XS GIS Cut Line=5
0.181237608992520.518810946934750.172106325752450.51011369515176
0.168555271159090.506731430569480.165004216565730.50334916598721
0.155872933325650.49465191420422
Node Last Edited Time=Dec/10/1996 10:21:46
#Sta/Elev= 17 
       0    23.3    2.87   23.62    4.05   22.87   15.97      24   25.45   24.18
   31.05    24.8   41.77    26.6      54   18.45      67    5.45      83    5.45
      96    18.4   97.63   18.32  103.62   24.67  114.37   25.09  125.32      26
  128.65      26     150   26.57
#Mann= 3 , 0 , 0 
       0     .08       0      54    .035       0      96     .08       0
#XS Ineff= 2 , 0 
              52    23.8      98            23.8
Permanent Ineff=
       F       F
Bank Sta=54,96
XS Rating Curve= 0 ,0
Exp/Cntr=0.3,0.1

Type RM Length L Ch R = 3 ,2512    ,,,
BEGIN DESCRIPTION:
Seminary St. bridge - Proposed
END DESCRIPTION:
Node Last Edited Time=Dec/10/1996 10:21:46
Bridge Culvert--1,-1,-1,-1, 0 
Deck Dist Width WeirC Skew NumUp NumDn MinLoCord MaxHiCord MaxSubmerge Is_Ogee
2,52,3,0, 6, 6, 22.9, , 0.95, 0, ,,,
       0      54      54      96      96     150
    23.9    23.9    23.9    23.9    23.9    23.9
       0       0    21.9    21.9       0       0
       0      54      54      96      96     150
    23.9    23.9    23.9    23.9    23.9    23.9
       0       0    21.9    21.9       0       0
Pier Skew, UpSta & Num, DnSta & Num=  ,67, 2 ,67, 2 , 0 , 0 , 0 ,,
       1       1
       0      23
       1       1
       0      23
Pier Skew, UpSta & Num, DnSta & Num=  ,82, 2 ,82, 2 , 0 , 0 , 0 ,,
       1       1
       0      23
       1       1
       0      23
BR Coef= 1 ,-1 , 0 ,, 0 ,,,0.8,0,2,0,
WSPro=,,,, 1 ,,,, 0 ,,,, 0 ,,,,-1 ,-1 ,-1 , 0 , 0 , 0 , 0 , 0 
BC Design=,, 0 ,, 0 ,,,,,,
BC HTab HWMax=26.6
BC Use User HTab Curves=0
BC User HTab FreeFlow(D)= 0 

Type RM Length L Ch R = 1 ,2484    ,13,13,13
BEGIN DESCRIPTION:
2484
END DESCRIPTION:
XS GIS Cut Line=5
0.190256981211920.509341468019120.181125697971850.50064421623613
0.177574643378490.497261951653850.174023588785120.49387968707158
0.164892305545050.48518243528859
Node Last Edited Time=Dec/10/1996 10:21:46
#Sta/Elev= 18 
       0    22.6    9.35   22.67   15.95      23    21.6   23.07    21.8   23.58
   35.71      24    49.1   24.06   52.57   18.33      54   18.26      67    5.26
      83     5.3      96   18.26  108.41   18.88  109.58   19.18  115.33      25
  130.71    25.8  145.27   26.05     150   26.63
#Mann= 3 , 0 , 0 
       0     .08       0      54    .035       0      96     .08       0
#XS Ineff= 2 , 0 
              52    23.8      98            23.8
Permanent Ineff=
       F       F
Bank Sta=54,96
XS Rating Curve= 0 ,0
Exp/Cntr=0.3,0.1

Type RM Length L Ch R = 1 ,2471*   ,25,25,25
BEGIN DESCRIPTION:
2471 - Interpolated
END DESCRIPTION:
XS GIS Cut Line=5
 0.19235921945650.507151249630420.183227936216430.49845399784743
0.179668426215130.495063679762730.176108917503950.49167336290682
0.166994543789630.48299221689989
Node Last Edited Time=Dec/10/1996 10:21:46
#Sta/Elev= 26 
       0   22.47     9.4   22.57    15.9   22.83    20.4   22.89    21.6   22.91
    21.8   23.25    29.8   23.44    35.7   23.53    47.7   23.49    49.1   23.17
    52.6   18.58      54   18.21      67    5.21      83    5.24    96.1   18.22
   103.7   20.14   103.8   20.51   108.5   20.77   109.7   20.99   115.4   24.98
   116.5   25.04   124.5   25.65   130.8   25.87   142.3      26   145.3   26.07
     150   26.51
#Mann= 3 , 0 , 0 
       0     .08       0      54    .035       0    96.1     .08       0
Bank Sta=54,96.1
XS Rating Curve= 0 ,0
Exp/Cntr=0.3,0.1

Type RM Length L Ch R = 1 ,2446    ,46,46,46
BEGIN DESCRIPTION:
2446
END DESCRIPTION:
XS GIS Cut Line=5
0.196409398505670.50294635201819 0.18727811526560.49424910023519
0.183694931670220.490836233818250.180111749364960.48742336863009
 0.17104472283880.47878731928766
Node Last Edited Time=Dec/10/1996 10:21:46
#Sta/Elev= 14 
       0    22.2   20.35   22.57   29.77   22.69   47.66   22.35      54   18.12
      67     5.1      83    5.12   96.38   18.14  103.88   23.14  103.97   24.26
  116.66      25  124.66      26  142.33      26     150   26.28
#Mann= 3 , 0 , 0 
       0     .08       0      54    .035       0   96.38     .08       0
Bank Sta=54,96.38
XS Rating Curve= 0 ,0
Exp/Cntr=0.3,0.1

Type RM Length L Ch R = 1 ,2400    ,100,100,100
BEGIN DESCRIPTION:
2400
END DESCRIPTION:
XS GIS Cut Line=5
0.203786039541020.495137249645670.194654756300940.48643999786268
0.191103701707580.483057733280410.187552647114220.47967546869813
0.178421363874150.47097821691514
Node Last Edited Time=Dec/10/1996 10:21:46
#Sta/Elev= 15 
       0    21.5   24.76   21.53   49.75   20.79      54   17.96      67    4.96
      83       5      96   17.96   98.24   18.13  102.67   22.49  103.96      24
  108.59    24.2  124.47   25.06  137.62      25  145.92      26     150      26
#Mann= 3 , 0 , 0 
       0     .08       0      54    .035       0      96     .08       0
Bank Sta=54,96
XS Rating Curve= 0 ,0
Exp/Cntr=0.3,0.1

Type RM Length L Ch R = 1 ,2300    ,100,100,100
BEGIN DESCRIPTION:
2300
END DESCRIPTION:
XS GIS Cut Line=5
0.220198584109720.476406879718680.210344888365210.46853749585704
0.206480376710580.465518348278540.202615865055950.46249920070004
0.192762169311440.45462981683841
Node Last Edited Time=Dec/10/1996 10:21:46
#Sta/Elev= 12 
       0    20.6   32.61   20.43   46.82   20.45   52.56   17.68      54    17.6
      67     4.6      83     4.6      96    17.6  115.27   18.57  118.59   22.77
  136.36      24     150   24.57
#Mann= 3 , 0 , 0 
       0     .08       0      54    .035       0      96     .08       0
Bank Sta=54,96
XS Rating Curve= 0 ,0
Exp/Cntr=0.3,0.1

Type RM Length L Ch R = 1 ,2200    ,100,100,100
BEGIN DESCRIPTION:
2200
END DESCRIPTION:
XS GIS Cut Line=5
 0.23465909727950.457898581751130.224721781596160.45013505940642
0.220857269941530.44711591182792 0.21699275828690.44409676424942
0.207055442603560.43633324190471
Node Last Edited Time=Dec/10/1996 10:21:46
#Sta/Elev= 13 
       0    20.3   45.99   19.43   48.84   17.51      54   17.25      67    4.25
      83     4.3      96   17.25  107.46   17.87  113.61    23.8  115.54    24.2
  126.18    24.5  132.32   24.27     150   24.48
#Mann= 3 , 0 , 0 
       0     .08       0      54    .035       0      96     .08       0
Bank Sta=54,96
XS Rating Curve= 0 ,0
Exp/Cntr=0.3,0.1

Type RM Length L Ch R = 1 ,2100    ,100,100,100
BEGIN DESCRIPTION:
2100
END DESCRIPTION:
XS GIS Cut Line=5
 0.2491876687742 0.43929798635240.239098674827110.43173262295579
0.235234163172480.428713475377290.231369651517850.42569432779879
0.221280657570750.41812896440219
Node Last Edited Time=Dec/10/1996 10:21:46
#Sta/Elev= 11 
       0    18.6      39   17.65      54    16.9      67     3.9      83     3.9
      96    16.9  104.85   17.41  108.68   22.27  112.92      23  130.76      24
     150    24.3
#Mann= 3 , 0 , 0 
       0     .08       0      54    .035       0      96     .08       0
Bank Sta=54,96
XS Rating Curve= 0 ,0
Exp/Cntr=0.3,0.1

Type RM Length L Ch R = 1 ,2000    ,10,10,10
BEGIN DESCRIPTION:
2000
END DESCRIPTION:
XS GIS Cut Line=5
0.258201569343320.415660765873020.252480236786780.41203725303895
0.248337202866520.409413329952210.244194168946260.40678940686547
0.23847283638971 0.4031658940314
Node Last Edited Time=Dec/10/1996 10:21:46
#Sta/Elev= 10 
       0    18.6   26.98   17.89      29   16.54      42    3.54      58    3.54
      71    16.5   73.29   16.77   75.42   21.64   89.52      24     100      24
#Mann= 3 , 0 , 0 
       0     .08       0      29    .035       0      71    .035       0
Bank Sta=29,71
XS Rating Curve= 0 ,0
Exp/Cntr=0.3,0.1

Type RM Length L Ch R = 1 ,1990    ,10,10,10
BEGIN DESCRIPTION:
1990
END DESCRIPTION:
XS GIS Cut Line=5
0.259451056527490.413687892577660.253492979024980.40991444118616
0.249586690050680.407440456656850.24568040032379 0.4049664716509
0.239722323573870.40119302073604
Node Last Edited Time=Dec/10/1996 10:21:46
#Sta/Elev= 14 
       0    18.8   26.04   18.17    28.7   16.58    30.2   16.51    35.8    9.51
    41.8     3.5    58.2    3.51    64.2    9.51    69.8   16.51   70.76   16.68
   72.82    21.4   83.71      23   89.47      24     100      24
#Mann= 3 , 0 , 0 
       0     .08       0    30.2    .035       0    69.8     .08       0
Bank Sta=30.2,69.8
XS Rating Curve= 0 ,0
Exp/Cntr=0.3,0.1

Type RM Length L Ch R = 1 ,1980    ,10,10,10
BEGIN DESCRIPTION:
1980
END DESCRIPTION:
XS GIS Cut Line=5
0.26070054371165 0.41171501928230.254505721639470.40779162957169
0.250836177234840.405467583361490.24716663320651 0.4031435373896
0.240971810758030.39922014744068
Node Last Edited Time=Dec/10/1996 10:21:46
#Sta/Elev= 13 
       0      19   22.15   18.58   25.37   16.77    31.4   16.47    35.6    9.47
    41.6     3.5    58.4    3.47    64.4    9.47    68.6   16.47    76.9   21.97
    84.4      23   93.63      24     100      24
#Mann= 3 , 0 , 0 
       0     .08       0    31.4    .035       0    68.6     .08       0
Bank Sta=31.4,68.6
XS Rating Curve= 0 ,0
Exp/Cntr=0.3,0.1

Type RM Length L Ch R = 1 ,1970    ,10,10,10
BEGIN DESCRIPTION:
1970
END DESCRIPTION:
XS GIS Cut Line=5
0.261950030895810.409742145986940.255518464253970.40566881795723
  0.2520856644190.403494710066130.248652864584040.40132060217503
 0.24222129794220.39724727414532
Node Last Edited Time=Dec/10/1996 10:21:46
#Sta/Elev= 14 
       0    19.2   22.68   18.86   26.03   16.76    32.6   16.44    35.4    9.43
    41.4     3.4    58.6    3.44    64.6    9.44    67.4   16.44   70.57   16.65
   75.45    21.3   85.17      23   92.72   23.67     100   23.65
#Mann= 3 , 0 , 0 
       0     .08       0    32.6    .035       0    67.4     .08       0
Bank Sta=32.6,67.4
XS Rating Curve= 0 ,0
Exp/Cntr=0.3,0.1

Type RM Length L Ch R = 1 ,1960    ,10,10,10
BEGIN DESCRIPTION:
1960
END DESCRIPTION:
XS GIS Cut Line=5
0.263199518079970.407769272691580.256531206492170.40354600610444
0.253335151603160.401521836770770.250139097466750.39949766791374
0.243470785126360.39527440084996
Node Last Edited Time=Dec/10/1996 10:21:46
#Sta/Elev= 14 
       0    19.4    21.9   19.08   25.06   19.09   28.97   16.64    33.8    16.4
    35.2     9.4    41.2     3.4    58.8     3.4    64.8     9.4    66.2    16.4
   73.55    16.8    78.5    21.3   86.97      23     100   23.37
#Mann= 3 , 0 , 0 
       0     .08       0    33.8    .035       0    66.2     .08       0
Bank Sta=33.8,66.2
XS Rating Curve= 0 ,0
Exp/Cntr=0.3,0.1

Type RM Length L Ch R = 1 ,1950    ,10,10,10
BEGIN DESCRIPTION:
1950
END DESCRIPTION:
XS GIS Cut Line=5
0.264449005264130.405796399396210.257563677162290.40143568893283
0.25458463878733 0.39954896347540.251605600412370.39766223801798
0.24472027231052 0.3933015275546
Node Last Edited Time=Dec/10/1996 10:21:46
#Sta/Elev= 14 
       0    19.5   18.37   19.33   27.58   19.34   32.05   16.51    34.9   16.36
      35     9.4      41    3.36      59    3.36      65    9.36    65.1   16.36
   74.97    16.9   78.57   21.12    88.2      23     100   23.15
#Mann= 3 , 0 , 0 
       0     .08       0    34.9    .035       0    65.1     .08       0
Bank Sta=34.9,65.1
XS Rating Curve= 0 ,0
Exp/Cntr=0.3,0.1

Type RM Length L Ch R = 1 ,1940    ,10,10,10
BEGIN DESCRIPTION:
1940
END DESCRIPTION:
XS GIS Cut Line=5
0.265698492448290.403823526100850.258813164346450.39946281563747
0.255834125971490.397576090180040.252855087596530.39568936472262
0.245969759494680.39132865425923
Node Last Edited Time=Dec/10/1996 10:21:46
#Sta/Elev= 15 
       0    19.7   11.36   19.72   17.49   19.94   29.18   19.63   34.08   16.37
    34.9    16.3      35    9.33      41    3.33      59    3.33      65    9.33
    65.1    16.3    74.5   16.89   78.02   21.02   88.25      23     100   23.09
#Mann= 3 , 0 , 0 
       0     .08       0    34.9    .035       0    65.1     .08       0
Bank Sta=34.9,65.1
XS Rating Curve= 0 ,0
Exp/Cntr=0.3,0.1

Type RM Length L Ch R = 1 ,1930    ,10,10,10
BEGIN DESCRIPTION:
1930
END DESCRIPTION:
XS GIS Cut Line=5
0.266947979632460.401850652805490.260062651530610.39748994234211
0.257083613155650.395603216884680.254104574780690.39371649142725
0.247219246678840.38935578096387
Node Last Edited Time=Dec/10/1996 10:21:46
#Sta/Elev= 14 
       0    20.2   12.97   20.54   27.34   19.93   31.24   16.48    34.9   16.29
      35     9.3      41    3.29      59    3.29      65    9.29    65.1   16.29
   73.21    16.8   77.12    21.1   88.38      23     100   23.04
#Mann= 3 , 0 , 0 
       0     .08       0    34.9    .035       0    65.1     .08       0
Bank Sta=34.9,65.1
XS Rating Curve= 0 ,0
Exp/Cntr=0.3,0.1

Type RM Length L Ch R = 1 ,1920    ,10,10,10
BEGIN DESCRIPTION:
1920
END DESCRIPTION:
XS GIS Cut Line=5
0.268197466816620.399877779510130.261312138714770.39551706904675
0.258333100339810.393630343589320.255354061964850.39174361813189
0.248468733863010.38738290766851
Node Last Edited Time=Dec/10/1996 10:21:46
#Sta/Elev= 17 
       0    20.6    8.58   20.58    9.04   21.09   21.52   21.01      25   20.52
   32.16    16.4    34.9   16.26      35    9.26      41    3.26      59    3.26
      65     9.3    65.1   16.26   71.24   16.65   75.66   21.31   79.06   21.64
   88.02      23     100   23.01
#Mann= 3 , 0 , 0 
       0     .08       0    34.9    .035       0    65.1     .08       0
Bank Sta=34.9,65.1
XS Rating Curve= 0 ,0
Exp/Cntr=0.3,0.1

Type RM Length L Ch R = 1 ,1910    ,10,10,10
BEGIN DESCRIPTION:
1910
END DESCRIPTION:
XS GIS Cut Line=5
0.269446954000780.397904906214770.262561625898930.39354419575139
0.259582587523970.391657470293960.256603549149020.38977074483653
0.249718221047170.38541003437315
Node Last Edited Time=Dec/10/1996 10:21:46
#Sta/Elev= 18 
       0    21.3    8.58   21.46   16.41   21.39   22.28    21.5   29.37      21
   31.88    16.4    34.9   16.22      35    9.22      41    3.22      59    3.22
      65     9.2    65.1   16.22   69.76   16.46   70.27   18.81   73.06   21.55
   84.05    22.5   87.54      23     100      23
#Mann= 3 , 0 , 0 
       0     .08       0    34.9    .035       0    65.1     .08       0
Bank Sta=34.9,65.1
XS Rating Curve= 0 ,0
Exp/Cntr=0.3,0.1

Type RM Length L Ch R = 1 ,1900    ,10,10,10
BEGIN DESCRIPTION:
1900
END DESCRIPTION:
XS GIS Cut Line=5
0.270696441184940.395932032919410.263811113083090.39157132245603
0.26083207470814 0.38968459699860.257853036333180.38779787154117
0.250967708231330.38343716107779
Node Last Edited Time=Dec/10/1996 10:21:46
#Sta/Elev= 14 
       0    21.3   13.01      22   28.63      21   29.46   16.46    34.9   16.19
      35     9.2      41    3.19      59    3.19      65    9.19    65.1   16.19
   70.21    16.4   70.85   21.99   85.91   22.99     100      23
#Mann= 3 , 0 , 0 
       0     .08       0    34.9    .035       0    65.1     .08       0
Bank Sta=34.9,65.1
XS Rating Curve= 0 ,0
Exp/Cntr=0.3,0.1

Type RM Length L Ch R = 1 ,1890    ,10,10,10
BEGIN DESCRIPTION:
1890
END DESCRIPTION:
XS GIS Cut Line=5
 0.27194592836910.393959159624050.265060600267260.38959844916067
 0.26208156189230.387711723703240.259102523517340.38582499824581
0.252217195415490.38146428778243
Node Last Edited Time=Dec/10/1996 10:21:46
#Sta/Elev= 16 
       0    21.4    6.07   21.87    8.44    21.3   14.44   21.91   18.84    21.8
   32.31      21    34.9   16.15      35    9.15      41    3.15      59    3.15
      65     9.2    65.1   16.15   68.62   16.34   69.24   22.64   75.67   22.87
     100      23
#Mann= 3 , 0 , 0 
       0     .08       0    34.9    .035       0    65.1     .08       0
Bank Sta=34.9,65.1
XS Rating Curve= 0 ,0
Exp/Cntr=0.3,0.1

Type RM Length L Ch R = 1 ,1880    ,10,10,10
BEGIN DESCRIPTION:
1880
END DESCRIPTION:
XS GIS Cut Line=5
0.273195415553270.391986286328690.26631008745142 0.3876255758653
0.263331049076460.38573885040788 0.26035201070150.38385212495045
0.253466682599650.37949141448707
Node Last Edited Time=Dec/10/1996 10:21:46
#Sta/Elev= 14 
       0    22.1   15.46    22.1   18.93   22.27   20.69   21.94   26.52    21.7
    34.9    16.1      35    9.12      41    3.12      59    3.12      65    9.12
    65.1    16.1   67.71   16.41   70.04   22.78     100      23
#Mann= 3 , 0 , 0 
       0     .08       0    34.9    .035       0    65.1     .08       0
Bank Sta=34.9,65.1
XS Rating Curve= 0 ,0
Exp/Cntr=0.3,0.1

Type RM Length L Ch R = 1 ,1870    ,10,10,10
BEGIN DESCRIPTION:
1870
END DESCRIPTION:
XS GIS Cut Line=5
0.274444902737430.390013413033320.267559574635580.38565270256994
0.264580536260620.383765977112510.261601497885660.38187925165509
0.254716169783820.37751854119171
Node Last Edited Time=Dec/10/1996 10:21:46
#Sta/Elev= 14 
       0    22.3    9.39   22.58   25.67    22.5   26.03   21.99    34.9   16.08
      35     9.1      41    3.08      59    3.08      65    9.08    65.1   16.08
    68.6    16.4   70.87   22.74   91.28      23     100   23.01
#Mann= 3 , 0 , 0 
       0     .08       0    34.9    .035       0    65.1     .08       0
Bank Sta=34.9,65.1
XS Rating Curve= 0 ,0
Exp/Cntr=0.3,0.1

Type RM Length L Ch R = 1 ,1860    ,10,10,10
BEGIN DESCRIPTION:
1860
END DESCRIPTION:
XS GIS Cut Line=5
0.275694389921590.388040539737960.268809061819740.38367982927458
0.265830023444780.381793103817150.262850985069820.37990637835973
0.255965656967980.37554566789634
Node Last Edited Time=Dec/10/1996 10:21:46
#Sta/Elev= 13 
       0      22    5.18   22.19    25.4   22.38    34.9   16.05      35    9.05
      41       3      59    3.05      65    9.05    65.1   16.05   68.37   16.35
   70.65    22.7   96.93      23     100    23.1
#Mann= 3 , 0 , 0 
       0     .08       0    34.9    .035       0    65.1     .08       0
Bank Sta=34.9,65.1
XS Rating Curve= 0 ,0
Exp/Cntr=0.3,0.1

Type RM Length L Ch R = 1 ,1850    ,10,10,10
BEGIN DESCRIPTION:
1850
END DESCRIPTION:
XS GIS Cut Line=5
0.27694387710575 0.3860676664426 0.27005854900390.38170695597922
0.267079510628950.379820230521790.264100472253990.37793350506436
0.257215144152140.37357279460098
Node Last Edited Time=Dec/10/1996 10:21:46
#Sta/Elev= 11 
       0    21.7   25.55   22.24    34.9   16.01      35    9.01      41    3.01
      59       3      65    9.01    65.1   16.01   67.83   16.29   70.11   22.64
     100      23
#Mann= 3 , 0 , 0 
       0     .08       0    34.9    .035       0    65.1     .08       0
Bank Sta=34.9,65.1
XS Rating Curve= 0 ,0
Exp/Cntr=0.3,0.1
