Flow Title=100 year flow
Number of Profiles= 1 
Profile Names=100 yr      
River Rch & RM=Napa Creek,South Reach ,3800    
    4070
Boundary for River Rch & Prof#=Napa Creek,South Reach , 1 
Up Type= 0 
Dn Type= 1 
Dn Known WS=13
