Geom Title=Base Geometry
Program Version=4.01
Viewing Rectangle=-0.0905 , 0.8805 , 1.0543 , 0.0353 

River Reach=Pine Creek      ,Pine Creek      
Reach XY= 30 
       0.1177249       0.8911248        0.139686       0.8577278
        0.155998       0.8338786       0.1739413       0.8165338
       0.2000405       0.7926846       0.2228773       0.7731717
       0.2448473       0.7528617       0.2734446       0.7298096
       0.2995438       0.7016242       0.3207494       0.6821112
       0.3386926       0.6604302       0.3566359       0.6409173
       0.3762103       0.6170681       0.3941535       0.5975552
       0.4206106       0.5616948       0.4392997       0.5413678
        0.454508       0.5151672        0.462664       0.4848137
        0.495288       0.4392835       0.5067064       0.4197705
       0.5230185        0.387249       0.5440658       0.3633276
       0.5752169       0.3438869       0.5990053       0.3236904
       0.6306778       0.3113653       0.6564492       0.2997649
       0.6716299       0.2786514       0.6839861       0.2575378
       0.6947977       0.2343129       0.7117875       0.2216448
Rch Text X Y=0.5299146,0.6488295
Reverse River Text= 0 

Type RM Length L Ch R = 1 ,10.90   ,1200,1000,1200
BEGIN DESCRIPTION:
River Mile 10.90
END DESCRIPTION:
XS GIS Cut Line=5
0.316421397560551.044312313145270.149992186497740.91234302635283
       0.1177249       0.89112480.085457613502260.86990657364717
-0.08097159756050.73793728685473
Node Last Edited Time=Feb/09/1998 17:58:24
#Sta/Elev= 17 
       0   26.06     100   22.06     200   18.06     500   17.81     900   17.06
    1100   16.06    1215   12.56    1250   11.96    1300   10.11    1350   11.91
    1385   12.16    1500   16.06    1700   17.06    2100   17.81    2400   18.06
    2500   22.06    2600   26.06
#Mann= 3 , 0 , 0 
       0    .042       0    1100    .032       0    1500    .042       0
Bank Sta=1100,1500
XS Rating Curve= 0 ,0
Exp/Cntr=0.3,0.1

Type RM Length L Ch R = 1 ,10.71   ,900,800,900
BEGIN DESCRIPTION:
River Mile 10.71
END DESCRIPTION:
XS GIS Cut Line=5
0.429117661619520.923841947422690.273319875573170.77947566044907
0.247930298521150.750376514677980.22254072146913 0.7212773689069
0.066742935422780.57691108193327
Node Last Edited Time=Feb/09/1998 17:58:24
#Sta/Elev= 17 
       0   24.06     100   20.06     200   16.06     500   15.81     900   15.06
    1100   14.06    1215   10.56    1250    9.96    1300    8.11    1350    9.91
    1385   10.16    1500   14.06    1700   15.06    2100   15.81    2400   16.06
    2500   20.06    2600   24.06
#Mann= 3 , 0 , 0 
       0    .042       0    1100    .032       0    1500    .042       0
Bank Sta=1100,1500
XS Rating Curve= 0 ,0
Exp/Cntr=0.3,0.1

Type RM Length L Ch R = 1 ,10.55   ,500,380,500
BEGIN DESCRIPTION:
River Mile 10.55
END DESCRIPTION:
XS GIS Cut Line=5
 0.54821350315080.803102932790180.385731786625640.66630283503242
0.356514208104120.641049636961150.327296629582610.61579643888989
0.164814913057450.47899634113213
Node Last Edited Time=Feb/09/1998 17:58:24
#Sta/Elev= 17 
       0   22.46     100   18.46     200   14.46     500   14.21     900   13.46
    1100   12.46    1215    8.96    1250    8.36    1300    6.51    1350    8.31
    1385    8.56    1500   12.46    1700   13.46    2100   14.21    2400   14.46
    2500   18.46    2600   22.46
#Mann= 3 , 0 , 0 
       0    .042       0    1100    .032       0    1500    .042       0
Bank Sta=1100,1500
XS Rating Curve= 0 ,0
Exp/Cntr=0.5,0.3

Type RM Length L Ch R = 1 ,10.48   ,940,640,940
BEGIN DESCRIPTION:
River Mile 10.48 - Approach Section
END DESCRIPTION:
XS GIS Cut Line=5
0.602846094646060.737408117213620.433551720996730.60913501012497
 0.40355346531120.584814328322990.373555209625670.56049364652101
0.204260835976340.43222053943236
Node Last Edited Time=Feb/09/1998 17:58:24
#Sta/Elev= 17 
       0    21.7     100    17.7     200    13.7     500   13.45     900    12.7
    1100    11.7    1215     8.2    1250     7.6    1300    5.75    1350    7.55
    1385     7.8    1500    11.7    1700    12.7    2100   13.45    2400    13.7
    2500    17.7    2600    21.7
#Mann= 3 , 0 , 0 
       0    .042       0    1100    .032       0    1500    .042       0
Bank Sta=1100,1500
XS Rating Curve= 0 ,0
Exp/Cntr=0.8,0.5

Type RM Length L Ch R = 1 ,10.37   ,70,70,70
BEGIN DESCRIPTION:
River Mile 10.37 - Upstream from bridge
END DESCRIPTION:
XS GIS Cut Line=5
0.669325300519860.628946083634660.50149218736458 0.4987668952822
0.465873800413160.480334088218150.430255393583940.46190126828014
0.26421958891106 0.3342598999797
Node Last Edited Time=Feb/09/1998 17:58:24
#Sta/Elev= 18 
       0   20.42     100   16.42     200   12.42     500   12.17     900   11.42
    1100   10.42    1215    6.92    1250    6.32    1300    4.47    1350    6.27
    1385    6.52    1500   10.42  1515.4   10.55    1700   12.12    2100   12.17
    2400   12.42    2500   16.42    2600   20.42
#Mann= 3 , 0 , 0 
       0    .042       0    1100    .032       0  1515.4    .042       0
#XS Ineff= 2 , 0 
           865.4   22.12  1515.4           22.12
Permanent Ineff=
       F       F
Bank Sta=1100,1515.4
XS Rating Curve= 0 ,0
Exp/Cntr=0.8,0.5

Type RM Length L Ch R = 3 ,10.36   ,,,
BEGIN DESCRIPTION:
Example Bridge
END DESCRIPTION:
Node Last Edited Time=Feb/09/1998 17:58:24
Bridge Culvert--1,-1,-1,-1, 0 
Deck Dist Width WeirC Skew NumUp NumDn MinLoCord MaxHiCord MaxSubmerge Is_Ogee
10,50,2.6,0, 6, 6, , , 0.95, 0, ,,,
       0   865.4   865.4  1515.4  1515.4    3000
      22      22      22      22      22      22
       0       0      18      18       0       0
       0   865.4   865.4  1515.4  1515.4    3000
      22      22      22      22      22      22
       0       0      18      18       0       0
Pier Skew, UpSta & Num, DnSta & Num=  ,985, 2 ,985, 2 , 0 , 0 , 0 ,,
       5       5
       0      20
       5       5
       0      20
Pier Skew, UpSta & Num, DnSta & Num=  ,1080, 2 ,1080, 2 , 0 , 0 , 0 ,,
       5       5
       0      20
       5       5
       0      20
Pier Skew, UpSta & Num, DnSta & Num=  ,1175, 2 ,1175, 2 , 0 , 0 , 0 ,,
       5       5
       0      20
       5       5
       0      20
Pier Skew, UpSta & Num, DnSta & Num=  ,1265, 2 ,1265, 2 , 0 , 0 , 0 ,,
       5       5
       0      20
       5       5
       0      20
Pier Skew, UpSta & Num, DnSta & Num=  ,1360, 2 ,1360, 2 , 0 , 0 , 0 ,,
       5       5
       0      20
       5       5
       0      20
Pier Skew, UpSta & Num, DnSta & Num=  ,1450, 2 ,1450, 2 , 0 , 0 , 0 ,,
       5       5
       0      20
       5       5
       0      20
Abutment Skew #Up #Dn= , 2 , 2 
   865.4   901.4
      18       0
   865.4   901.4
      18       0
Abutment Skew #Up #Dn= , 2 , 2 
    1500  1515.4
    10.3      18
    1500  1515.4
    10.3      18
BR Coef=-1 ,-1 , 0 ,, 0 ,,,0.8,0,1.33,0,
WSPro=,,,, 1 ,,,, 0 ,,,, 0 ,,,,-1 ,-1 ,-1 , 0 , 0 , 0 , 0 , 0 
BC Design=,, 0 ,, 0 ,,,,,,
BC HTab HWMax=20.42
BC Use User HTab Curves=0
BC User HTab FreeFlow(D)= 0 

Type RM Length L Ch R = 1 ,10.35   ,940,640,940
BEGIN DESCRIPTION:
River Mile 10.35 - Downstream from bridge
END DESCRIPTION:
XS GIS Cut Line=5
0.674456695567750.621943867255040.508462170699180.48942823547843
0.473746456476520.469346974280670.43903072033359 0.4492657039032
0.274835144169690.31926562658328
Node Last Edited Time=Feb/09/1998 17:58:24
#Sta/Elev= 18 
       0   20.28     100   16.28     200   12.28     500   12.03     900   11.28
    1100   10.28    1215    6.78    1250    6.18    1300    4.33    1350    6.13
    1385    6.38    1500   10.28  1515.4   10.36    1700   11.28    2100   12.03
    2400   12.28    2500   16.28    2600   20.28
#Mann= 3 , 0 , 0 
       0    .042       0    1100    .032       0  1515.4    .042       0
#XS Ineff= 2 , 0 
             875   21.98    1500           21.98
Permanent Ineff=
       F       F
Bank Sta=1100,1515.4
XS Rating Curve= 0 ,0
Exp/Cntr=0.8,0.5

Type RM Length L Ch R = 1 ,10.23   ,400,300,400
BEGIN DESCRIPTION:
River Mile 10.23
END DESCRIPTION:
XS GIS Cut Line=5
0.730730599855410.530821482451470.567738239222240.39463020032694
 0.54125232401470.366525268320150.514766408807160.33842033631336
0.37022612494919 0.2133167310377
Node Last Edited Time=Feb/09/1998 17:58:24
#Sta/Elev= 17 
       0      19     100      15     200      11     500   10.75     900      10
    1100       9    1215     5.5    1250     4.9    1300    3.05    1350    4.85
    1385     5.1    1500       9    1680      10    2040   10.75    2310      11
    2400      15    2490      19
#Mann= 3 , 0 , 0 
       0    .042       0    1100    .032       0    1500    .042       0
#XS Ineff= 2 , 0 
             400      14    2100              14
Permanent Ineff=
       F       F
Bank Sta=1100,1500
XS Rating Curve= 0 ,0
Exp/Cntr=0.5,0.3

Type RM Length L Ch R = 1 ,10.17   ,800,900,900
BEGIN DESCRIPTION:
River Mile 10.17 - Downstream Cross Section
END DESCRIPTION:
XS GIS Cut Line=5
0.762494462874120.512058070683860.60858947629387 0.3656755920287
0.588137315905630.33291738629424 0.56768515551740.30015918055978
0.430377030318930.16715811114606
Node Last Edited Time=Feb/09/1998 17:58:24
#Sta/Elev= 17 
       0   18.39     100   14.39     200   10.39     500   10.14     900    9.39
    1100    8.39    1215    4.89    1250    4.29    1300    2.44    1350    4.24
    1385    4.49    1500    8.39    1680    9.39    2040   10.14    2310   10.39
    2400   14.39    2490   18.39
#Mann= 3 , 0 , 0 
       0    .042       0    1100    .032       0    1500    .042       0
Bank Sta=1100,1500
XS Rating Curve= 0 ,0
Exp/Cntr=0.3,0.1

Type RM Length L Ch R = 1 ,10.00   ,0,0,0
BEGIN DESCRIPTION:
River Mile 10.00
END DESCRIPTION:
XS GIS Cut Line=5
0.870959232213120.415629259186620.738119517059850.24989397317458
       0.7117875       0.22164480.685455482940150.19339562682542
0.564614775200310.04527294435023
Node Last Edited Time=Feb/09/1998 17:58:24
#Sta/Elev= 17 
       0   16.59     100   12.59     200    8.59     500    8.34     900    7.59
    1100    6.59    1215    3.09    1250    2.49    1300     .64    1350    2.44
    1385    2.69    1500    6.59    1680    7.59    2040    8.34    2310    8.59
    2400   12.59    2490   16.59
#Mann= 3 , 0 , 0 
       0    .042       0    1100    .032       0    1500    .042       0
Bank Sta=1100,1500
XS Rating Curve= 0 ,0
Exp/Cntr=0.3,0.1

Chan Stop Cuts=-1 



Use User Specified Reach Order=0
User Specified Reach Order=Pine Creek      ,Pine Creek      
GIS Ratio Cuts To Invert=-1
