Geom Title=Thames River Open Water Data
Program Version=4.01
Viewing Rectangle= 0.4676 , 0.5059 , 0.908 , 0.092 

River Reach=Thames River    ,Ice Jam Section 
Reach XY= 2 
             0.5             0.9             0.5             0.1
Rch Text X Y=0.5,0.7
Reverse River Text= 0 

Type RM Length L Ch R = 1 ,42000   ,410,410,410
BEGIN DESCRIPTION:
42.00 
END DESCRIPTION:
XS GIS Cut Line=5
0.50411111117391             0.90.50411111117391             0.9
             0.5             0.9 0.4958888888261             0.9
 0.4958888888261             0.9
Node Last Edited Time=Apr/07/1998 12:56:28
#Sta/Elev= 28 
      -5     184       0 183.173       4 179.562       9 175.491    13.3 173.191
    16.4  172.29    19.5 172.291    22.6 171.991    25.7 171.991    28.8 171.991
    31.9  171.99    35.1 172.091    38.2 172.191    41.3 172.291    44.4 172.391
    47.5  172.39    50.6 172.591    53.7 172.591    56.8 172.591    59.9 172.591
      63  173.39    66.1 174.791    69.2 175.241    71.8 175.492    77.3 178.363
    86.6  179.24    89.9 179.994    94.9     184
#Mann= 3 , 0 , 0 
      -5    .025       0      -5    .025       0    94.9    .025       0
Bank Sta=-5,94.9
XS Rating Curve= 0 ,0
Exp/Cntr=0.3,0.1

Type RM Length L Ch R = 1 ,41590   ,400,400,400
BEGIN DESCRIPTION:
41.59 
END DESCRIPTION:
XS GIS Cut Line=5
0.503909465020580.866255144032920.503909465020580.86625514403292
             0.50.866255144032920.496090534979420.86625514403292
0.496090534979420.86625514403292
Node Last Edited Time=Apr/07/1998 12:56:28
#Sta/Elev= 17 
     -10     184      -5 181.023       0  178.13    2.85 175.556   10.43 172.264
   18.03  172.07    25.4 172.134   32.05 172.564   38.42 172.919   44.59 173.319
   50.88  173.71   57.05 173.994   63.67 173.769    70.8 175.409    75.8 178.093
      80  181.02      85     184
#Mann= 3 , 0 , 0 
     -10    .025       0     -10    .025       0      85    .025       0
Bank Sta=-10,85
XS Rating Curve= 0 ,0
Exp/Cntr=0.3,0.1

Type RM Length L Ch R = 1 ,41190   ,500,500,500
BEGIN DESCRIPTION:
41.19 
END DESCRIPTION:
XS GIS Cut Line=5
0.503621399176960.833333333333330.503621399176960.83333333333333
             0.50.833333333333330.496378600823050.83333333333333
0.496378600823050.83333333333333
Node Last Edited Time=Apr/07/1998 12:56:28
#Sta/Elev= 25 
      -5  183.98       0 179.439     2.7 178.366    10.8 178.494    16.7 175.497
    19.2   174.9    22.2 173.697    25.2 173.297    28.2 173.097    31.2 172.997
    34.2   172.9    37.2 172.597    40.2 172.197    43.2 171.297    46.2 170.597
    49.2   170.1    52.2 170.097    55.2 169.997    58.2 170.797    61.2 171.297
    63.7   173.1    66.8 175.497    68.1 176.551    78.1 178.984      83 183.984
#Mann= 3 , 0 , 0 
      -5    .025       0      -5    .025       0      83    .025       0
Bank Sta=-5,83
XS Rating Curve= 0 ,0
Exp/Cntr=0.3,0.1

Type RM Length L Ch R = 1 ,40690   ,510,510,510
BEGIN DESCRIPTION:
40.69 
END DESCRIPTION:
XS GIS Cut Line=5
0.504732510288070.792181069958850.504732510288070.79218106995885
             0.50.792181069958850.495267489711930.79218106995885
0.495267489711930.79218106995885
Node Last Edited Time=Apr/07/1998 12:56:28
#Sta/Elev= 19 
     -10  183.02       0  181.32     8.7 178.757      14  177.53    19.1 175.415
    26.2  172.28    33.5 171.974   39.94 172.284   46.85 172.574   53.85 172.879
   60.41   173.1   66.65 173.514   73.18 173.549    79.4 173.719   85.26 175.407
   90.83  176.57   92.33 178.336      95 181.023     105 183.023
#Mann= 3 , 0 , 0 
     -10    .025       0     -10    .025       0     105    .025       0
Bank Sta=-10,105
XS Rating Curve= 0 ,0
Exp/Cntr=0.3,0.1

Type RM Length L Ch R = 1 ,40180   ,990,990,990
BEGIN DESCRIPTION:
40.18 
END DESCRIPTION:
XS GIS Cut Line=5
0.505555555555560.750205761316870.505555555555560.75020576131687
             0.50.750205761316870.494444444444440.75020576131687
0.494444444444440.75020576131687
Node Last Edited Time=Apr/07/1998 12:56:28
#Sta/Elev= 41 
       0  184.03    10.4 179.189    17.5 179.189    22.5 178.544      31 177.887
    33.5  177.09      38 175.855    40.3 175.455    42.3 174.755    44.3 173.855
    46.3  173.26    48.3 172.655    50.3 171.905    52.3 171.755    54.3 171.455
    56.3  171.06    58.3 171.155    61.3 171.355    64.3 171.555    67.3 171.355
    70.3  171.36    73.3 171.655    76.3 171.755    79.3 171.655    82.3 171.455
    85.3  171.16    88.3 171.355    91.3 171.155    94.3 171.655    97.3 172.105
    99.3  173.06   101.3 173.355   103.3 173.755   105.3 173.905   107.3 174.055
   109.3  174.11   110.3 174.355   114.8 175.855   116.5 177.344     120 179.156
     135     184
#Mann= 3 , 0 , 0 
       0    .025       0       0    .025       0     135    .025       0
Bank Sta=0,135
XS Rating Curve= 0 ,0
Exp/Cntr=0.3,0.1

Type RM Length L Ch R = 1 ,39190   ,630,630,630
BEGIN DESCRIPTION:
39.19 
END DESCRIPTION:
XS GIS Cut Line=5
0.504279835390950.668724279835390.504279835390950.66872427983539
             0.50.668724279835390.495720164609050.66872427983539
0.495720164609050.66872427983539
Node Last Edited Time=Apr/07/1998 12:56:28
#Sta/Elev= 22 
     -10  183.01      -5 181.013       0   180.1       0 178.991    5.55 176.747
   12.15  175.36   12.15  175.01   19.35 172.055   26.65 170.955   32.57   170.8
   38.95  170.67   44.92  170.85    50.8 171.625   56.88 172.445   63.57 173.215
   70.71  173.55   77.72 174.365   77.72  175.35   81.77 177.019   83.87 177.775
      90  181.01      94 183.013
#Mann= 3 , 0 , 0 
     -10    .025       0     -10    .025       0      94    .025       0
Bank Sta=-10,94
XS Rating Curve= 0 ,0
Exp/Cntr=0.3,0.1

Type RM Length L Ch R = 1 ,38560   ,1030,1030,1030
BEGIN DESCRIPTION:
38.56
END DESCRIPTION:
XS GIS Cut Line=5
0.503316872365190.616872427983540.503316872365190.61687242798354
             0.50.616872427983540.496683127634810.61687242798354
0.496683127634810.61687242798354
Node Last Edited Time=Apr/07/1998 12:56:28
#Sta/Elev= 18 
      -2  183.03       0 178.668    1.45 176.452     5.1 175.415     5.1 174.604
   12.36  173.01   20.19 171.284   27.44 169.554   35.04 168.754   43.64 168.709
   52.27  168.89   61.45 170.414   68.24 175.054   68.24 175.395   71.74 177.524
   73.74  178.55      75 180.025    78.6 183.025
#Mann= 3 , 0 , 0 
      -2    .025       0      -2    .025       0    78.6    .025       0
Bank Sta=-2,78.6
XS Rating Curve= 0 ,0
Exp/Cntr=0.3,0.1

Type RM Length L Ch R = 1 ,37530   ,680,680,680
BEGIN DESCRIPTION:
37.53
END DESCRIPTION:
XS GIS Cut Line=5
0.50360082304527 0.53209876543210.50360082304527 0.5320987654321
             0.5 0.53209876543210.49639917695473 0.5320987654321
0.49639917695473 0.5320987654321
Node Last Edited Time=Apr/07/1998 12:56:28
#Sta/Elev= 23 
       9  181.66      10  180.66    10.4  179.86      16  177.41      20  175.63
    21.5  174.91      23  174.61    28.5  174.51    30.5  173.91      32  172.96
    35.5  172.61    46.5  172.56    62.5  172.31    66.5  172.36    71.5  172.66
    75.5  172.66    79.5  173.16      84  174.26    85.5  174.86    88.5  175.63
      93  179.46    94.5  180.66    96.5  181.66
#Mann= 3 , 0 , 0 
       9    .025       0       9    .025       0    96.5    .025       0
Bank Sta=9,96.5
XS Rating Curve= 0 ,0
Exp/Cntr=0.3,0.1

Type RM Length L Ch R = 1 ,36670   ,350,350,350
BEGIN DESCRIPTION:
36.67
END DESCRIPTION:
XS GIS Cut Line=5
0.50411522633745 0.47613168724280.50411522633745 0.4761316872428
             0.5 0.47613168724280.49588477366255 0.4761316872428
0.49588477366255 0.4761316872428
Node Last Edited Time=Apr/07/1998 12:56:28
#Sta/Elev= 25 
      11     183    14.2 179.517      16 177.617    19.7 176.717      20 175.547
    22.3  174.57    24.3 173.517    24.7 173.017    26.7 172.217    28.5 171.917
    36.5  171.37    38.5 171.317    42.5 171.817    56.5 172.517      72 172.767
    74.3  172.97    80.7 173.917    82.7 174.517    85.4 175.017      87 175.547
    88.6  176.82    91.2 177.767    93.6 178.417      98 179.517     111     183
#Mann= 3 , 0 , 0 
      11    .025       0      11    .025       0     111    .025       0
Bank Sta=11,111
XS Rating Curve= 0 ,0
Exp/Cntr=0.3,0.1

Type RM Length L Ch R = 1 ,36320   ,500,500,500
BEGIN DESCRIPTION:
36.32
END DESCRIPTION:
XS GIS Cut Line=5
0.504596707693340.447325102880660.504596707693340.44732510288066
             0.50.447325102880660.495403292306660.44732510288066
0.495403292306660.44732510288066
Node Last Edited Time=Apr/07/1998 12:56:28
#Sta/Elev= 35 
       0  182.38     4.9 182.049     6.9 181.438     9.2 179.692    12.7 178.545
    15.7   178.2    16.5 177.373      19 177.004      20 175.934      22 175.134
      24  174.43      26 173.034      28 172.634      30 171.934      32 171.634
      34  171.43      39 171.234      44 171.734      49 172.034      54 172.434
      59  172.53      64 172.734      69 172.734      74 172.834      79 172.934
      82  173.23      84 173.734      89 175.034      91 175.634      93 175.934
    95.8  178.14    98.8  178.96   103.1 179.575   104.9 180.013   111.7     183
#Mann= 3 , 0 , 0 
       0    .025       0       0    .025       0   111.7    .025       0
Bank Sta=0,111.7
XS Rating Curve= 0 ,0
Exp/Cntr=0.3,0.1

Type RM Length L Ch R = 1 ,35820   ,790,790,790
BEGIN DESCRIPTION:
35.82
END DESCRIPTION:
XS GIS Cut Line=5
0.504691358024690.406172839506170.504691358024690.40617283950617
             0.50.406172839506170.495308641975310.40617283950617
0.495308641975310.40617283950617
Node Last Edited Time=Apr/07/1998 12:56:28
#Sta/Elev= 25 
      -1     183     5.8 180.558      10 179.158    13.2 178.038      20 175.548
    22.5  175.06    24.5 174.458    27.3 172.808    32.5 171.658    37.3 171.008
      45  169.86      49 169.508      57 169.508      63 170.008      65 170.558
      75  171.56      81 172.358    85.5 173.358      87 173.158    96.5 173.308
   101.5  175.55   103.2 176.978   105.5 178.458     109 180.558     113     183
#Mann= 3 , 0 , 0 
      -1    .025       0      -1    .025       0     113    .025       0
Bank Sta=-1,113
XS Rating Curve= 0 ,0
Exp/Cntr=0.3,0.1

Type RM Length L Ch R = 1 ,35030   ,710,710,710
BEGIN DESCRIPTION:
35.03
END DESCRIPTION:
XS GIS Cut Line=5
0.505123456790120.341152263374490.505123456790120.34115226337449
             0.50.341152263374490.494876543209880.34115226337449
0.494876543209880.34115226337449
Node Last Edited Time=Apr/07/1998 12:56:28
#Sta/Elev= 28 
       0   182.4      13 181.057      25 178.511      30 177.353    42.2 176.843
    48.4  176.02    50.4 175.821    54.1 174.571    56.4 173.921    59.4 173.521
    60.4  173.22    63.4 172.921    66.4 172.621    69.4 172.421    72.4 172.221
    77.4  171.82    82.4 171.721    87.4 171.521    92.4 171.321    97.4 171.121
   102.1  170.82   107.4 171.021   109.4 171.821   111.4 172.521   115.1 174.021
   118.9  176.02   122.1 179.545   124.5     182
#Mann= 3 , 0 , 0 
       0    .025       0       0    .025       0   124.5    .025       0
Bank Sta=0,124.5
XS Rating Curve= 0 ,0
Exp/Cntr=0.3,0.1

Type RM Length L Ch R = 1 ,34320   ,530,530,530
BEGIN DESCRIPTION:
34.32
END DESCRIPTION:
XS GIS Cut Line=5
0.503477366255140.282716049382720.503477366255140.28271604938272
             0.50.282716049382720.496522633744860.28271604938272
0.496522633744860.28271604938272
Node Last Edited Time=Apr/07/1998 12:56:28
#Sta/Elev= 32 
      23     182    25.3 179.856      27 178.209      29 175.856      33 174.736
      37  173.96      38 173.936      39 174.056      42 173.453      43 173.556
      44  172.96      49 172.856      52 172.756      53 172.606      54 172.756
      55  172.56      66 172.406      78 171.856      81 171.806      82 171.656
      83  171.91      84 171.656    92.3 172.056    93.5 172.253      97 173.558
      98  174.36     101 175.536   103.5 177.306     105 178.906   105.5 179.606
   105.7  179.86   107.5     182
#Mann= 3 , 0 , 0 
      23    .025       0      23    .025       0   107.5    .025       0
Bank Sta=23,107.5
XS Rating Curve= 0 ,0
Exp/Cntr=0.3,0.1

Type RM Length L Ch R = 1 ,33790   ,300,300,300
BEGIN DESCRIPTION:
33.79
END DESCRIPTION:
XS GIS Cut Line=5
 0.50457201655510.23909465020576 0.50457201655510.23909465020576
             0.50.239094650205760.495427983601890.23909465020576
0.495427983601890.23909465020576
Node Last Edited Time=Apr/07/1998 12:56:28
#Sta/Elev= 23 
     8.4  183.02    22.2 178.823    29.5 175.723      32 174.523    34.3 173.023
      37  172.12    37.7 172.523    41.2 173.373    43.5 173.423    47.4 172.323
      53  172.87      59 171.223    65.5 170.523    71.5 170.523    72.7 170.723
    74.7  171.17    76.5 171.573    89.7 173.623    90.7 174.023      92 175.523
    97.5  178.32     103 179.523   119.5 183.023
#Mann= 3 , 0 , 0 
     8.4    .025       0     8.4    .025       0   119.5    .025       0
Bank Sta=8.4,119.5
XS Rating Curve= 0 ,0
Exp/Cntr=0.3,0.1

Type RM Length L Ch R = 1 ,33490   ,400,400,400
BEGIN DESCRIPTION:
33.49
END DESCRIPTION:
XS GIS Cut Line=5
0.504506172957240.214403292181070.504506172957240.21440329218107
             0.50.214403292181070.495493827160490.21440329218107
0.495493827160490.21440329218107
Node Last Edited Time=Apr/07/1998 12:56:28
#Sta/Elev= 28 
    -2.6     182       0 179.058     2.8 175.772     5.7 175.305   10.98 173.805
   13.05  173.71   16.16 173.505   19.27 173.405   22.37 173.105   25.48 172.705
   28.59  172.41   33.77 171.705   38.95 170.905   44.13 170.505   49.31 170.505
   54.49  170.41   59.67 170.505   62.77 170.705   65.88 171.105   68.99 171.705
    72.1  173.01   75.21 174.855    77.8 175.303    85.1 177.894    85.8 178.292
    89.3  178.33    93.2 179.515   106.9 182.366
#Mann= 3 , 0 , 0 
    -2.6    .025       0    -2.6    .025       0   106.9    .025       0
Bank Sta=-2.6,106.9
XS Rating Curve= 0 ,0
Exp/Cntr=0.3,0.1

Type RM Length L Ch R = 1 ,33090   ,350,350,350
BEGIN DESCRIPTION:
33.09 
END DESCRIPTION:
XS GIS Cut Line=5
0.503860082430110.181481481481480.503860082430110.18148148148148
             0.50.181481481481480.496139917569890.18148148148148
0.496139917569890.18148148148148
Node Last Edited Time=Apr/07/1998 12:56:28
#Sta/Elev= 25 
    -6.5     182       0  177.94     4.3  175.29    6.22  173.29    7.82  173.09
   11.02   172.6   14.23 172.199   17.43 172.099   22.77 171.999   28.11 171.899
   33.45   171.9   38.79 171.699   44.13 171.499   49.47 171.499   54.81 170.799
   58.02   170.8   61.22 171.499   64.42 172.199   67.63 172.799   70.83 174.699
    73.5   175.3    76.3 177.049    80.5 177.471    84.7 179.661    87.3 182.092
#Mann= 3 , 0 , 0 
    -6.5    .025       0    -6.5    .025       0    87.3    .025       0
Bank Sta=-6.5,87.3
XS Rating Curve= 0 ,0
Exp/Cntr=0.3,0.1

Type RM Length L Ch R = 1 ,32740   ,190,190,190
BEGIN DESCRIPTION:
32.74 
END DESCRIPTION:
XS GIS Cut Line=5
0.503930041152260.152674897119340.503930041152260.15267489711934
             0.50.152674897119340.496069958847740.15267489711934
0.496069958847740.15267489711934
Node Last Edited Time=Apr/07/1998 12:56:28
#Sta/Elev= 25 
      -2     181       0 179.507     6.7 175.264   11.13 173.064   13.24 172.864
    16.4  172.46   19.57 172.264   22.73 172.164      28 172.064   33.27 171.764
   38.55  171.66   43.82 171.664   49.09 171.664   54.36 171.864   59.64 171.764
   64.91  171.96   68.07 172.064   71.24 172.264    74.4 173.064   77.56 174.564
    80.2  175.26    82.8 177.148    86.5 178.623    88.8 179.214    93.5     181
#Mann= 3 , 0 , 0 
      -2    .025       0      -2    .025       0    93.5    .025       0
Bank Sta=-2,93.5
XS Rating Curve= 0 ,0
Exp/Cntr=0.3,0.1

Type RM Length L Ch R = 1 ,32550   ,240,240,240
BEGIN DESCRIPTION:
32.55 
END DESCRIPTION:
XS GIS Cut Line=5
0.504580246788980.137037037037040.504580246788980.13703703703704
             0.50.137037037037040.495419752960830.13703703703704
0.495419752960830.13703703703704
Node Last Edited Time=Apr/07/1998 12:56:28
#Sta/Elev= 33 
      .7     180       2 179.183       4 177.903       9 176.421      14 175.808
    18.8  175.31    23.3 173.608    24.8 173.108    26.8 172.408    28.8 171.708
    30.8  171.51    33.8 171.308    36.8 171.508    39.8 171.608    44.8 171.708
    49.8  171.71    54.8 171.808    59.8 172.008    64.8 172.108    69.8 172.208
    74.8  172.31    79.8 172.408    84.8 172.508    89.8 172.208    91.8 172.208
    93.8  172.31    95.8 172.508    97.8 172.608    99.8 173.208   102.8 175.108
   104.8  175.81     109 180.017     112 180.111
#Mann= 3 , 0 , 0 
      .7    .025       0      .7    .025       0     112    .025       0
Bank Sta=0.7,112
XS Rating Curve= 0 ,0
Exp/Cntr=0.3,0.1

Type RM Length L Ch R = 1 ,32310   ,50,50,50
BEGIN DESCRIPTION:
32.31 
END DESCRIPTION:
XS GIS Cut Line=5
0.504547325102880.117283950617280.504547325102880.11728395061728
             0.50.117283950617280.495452674897120.11728395061728
0.495452674897120.11728395061728
Node Last Edited Time=Apr/07/1998 12:56:28
#Sta/Elev= 28 
       0  181.83     2.7 180.257     8.1 177.356    12.2 175.235    14.8 173.535
   17.91  171.84   21.02 170.935   24.14 170.435   27.25 169.835   30.37 169.735
   35.56  169.64   40.75 170.135   45.94 171.235   51.13 170.535   56.32 170.735
   61.51  171.54    66.7 172.235   69.81 172.435   72.92 171.935   78.11 171.335
    83.3  171.34   88.49 171.535   91.61 172.535    94.2 173.235      99 175.233
   103.1  175.88   108.1 178.723   110.5     180
#Mann= 3 , 0 , 0 
       0    .025       0       0    .025       0   110.5    .025       0
Bank Sta=0,110.5
XS Rating Curve= 0 ,0
Exp/Cntr=0.3,0.1

Type RM Length L Ch R = 1 ,32260   ,60,60,60
BEGIN DESCRIPTION:
32.26 
END DESCRIPTION:
XS GIS Cut Line=5
 0.50419753086420.11316872427984 0.50419753086420.11316872427984
             0.50.11316872427984 0.49580246913580.11316872427984
 0.49580246913580.11316872427984
Node Last Edited Time=Apr/07/1998 12:56:28
#Sta/Elev= 42 
       0  182.14       3 181.634       7 181.051    13.7 180.636      19 177.095
      22  176.91      23 176.075    26.2 175.499   27.05 175.274   28.55 175.024
   30.05  174.29   31.55 173.304   33.05 172.654   34.55 171.999   36.05 171.409
   37.55  170.85   39.05 170.809   42.55 170.509   45.05 170.119   48.05 170.094
   51.05  170.09   54.05 170.084   57.05 169.989   60.05 169.909   63.05 170.029
   66.05  170.26   69.05 170.349   72.05 170.599   75.05 170.834   76.55 171.499
   78.05   171.9   79.55 172.259   81.05 172.659   82.55 173.239   84.05 173.684
   85.55  174.11   87.05 174.599   88.55 175.119   90.05 175.414   94.05  175.91
   97.05  177.51     102     180
#Mann= 3 , 0 , 0 
       0    .025       0       0    .025       0     102    .025       0
Bank Sta=0,102
XS Rating Curve= 0 ,0
Exp/Cntr=0.3,0.1

Type RM Length L Ch R = 1 ,32200   ,100,100,100
BEGIN DESCRIPTION:
32.20 
END DESCRIPTION:
XS GIS Cut Line=5
0.50423868312757 0.10823045267490.50423868312757 0.1082304526749
             0.5 0.10823045267490.49576131687243 0.1082304526749
0.49576131687243 0.1082304526749
Node Last Edited Time=Apr/07/1998 12:56:28
#Sta/Elev= 30 
       0  181.28     8.5 180.352    10.4 178.586    16.2 176.801    17.1 175.765
    19.6  175.39    21.6 174.795    23.6 173.615    25.6 172.465    27.6 171.465
    29.6  171.27    31.6 170.965    34.6 170.765    37.6 170.665    42.6 170.665
    47.6  170.57    52.6 170.365    57.6 170.565    62.6 170.665    67.6 170.865
    70.6  170.97    73.6 171.865    75.6 172.365    77.6 172.865    79.6 173.165
    81.6  173.57    83.6 173.965    84.6 174.265    88.1 175.165     103     179
#Mann= 3 , 0 , 0 
       0    .025       0       0    .025       0     103    .025       0
Bank Sta=0,103
XS Rating Curve= 0 ,0
Exp/Cntr=0.3,0.1

Type RM Length L Ch R = 1 ,32100   ,0,0,0
BEGIN DESCRIPTION:
32.10 
END DESCRIPTION:
XS GIS Cut Line=5
0.50423868312757             0.10.50423868312757             0.1
             0.5             0.10.49576131687243             0.1
0.49576131687243             0.1
Node Last Edited Time=Apr/07/1998 12:56:28
#Sta/Elev= 25 
       0  179.17       5 179.042     8.8 175.918    10.3 175.761    14.3 174.361
    16.3  173.21    18.3 172.661    20.3 172.161    23.3 171.461    26.3 171.261
    31.3  171.16    36.3 170.961    41.3 170.661    46.3 170.361    51.3 170.461
    56.3  170.16    61.3 170.261    66.3 170.361    71.3 170.861    76.3 171.861
    79.3  172.66    82.3 173.361    84.3 173.861    86.3 174.461     103     179
#Mann= 3 , 0 , 0 
       0    .025       0       0    .025       0     103    .025       0
Bank Sta=0,103
XS Rating Curve= 0 ,0
Exp/Cntr=0.3,0.1

Chan Stop Cuts=-1 



Use User Specified Reach Order=0
User Specified Reach Order=Thames River    ,Ice Jam Section 
GIS Ratio Cuts To Invert=-1
