Plan Title=Thames River Ice Jam Analysis
Version=Version 2.2
Short Identifier=icejam      
Geom File=g01
Flow File=f01
Interactive Comp Mode
Subcritical Flow
K Sum by GR= 0 
Std Step Tol= 0.003 
Critical Tol= 0.003 
Num of Std Step Trials= 20 
Max Error Tol= 0.1 
Flow Tol Ratio= 0.001 
Log Output Level= 0 
Friction Slope Method= 1 
Parabolic Critical Depth
Global Vel Dist= 0 , 0 , 0 
Global Log Level= 0 
Encroach Param=-1 ,0,0, 0 
